<?xml version="1.0" encoding="UTF-8"?>

<!-- generated on 2022-11-25 17:38:23 by Eclipse SUMO netedit Version 1.15.0
-->

<additional> 
<!-- TAZs -->
    <tasz> 
        <taz id="1" edges="1009943383"> 
        </taz> 
        <taz id="2" edges="1010075428">
        </taz>
        <taz id="3" edges="1010075428">
        </taz>
    </tasz> 
</additional> 