<configuration>
    <input>
        <net-file value="porto_clean.net.xml"/>
        <route-files value="porto.rou.xml"/>
    </input>
    <time> 
        <begin value="0"/> 
        <end value="2000"/> 
    </time>
</configuration>