<?xml version="1.0" encoding="UTF-8"?>

<!-- generated on 2022-11-25 17:38:23 by Eclipse SUMO netedit Version 1.15.0
-->


<!-- TAZs -->
<taz id="taz_0" shape="3331.02,70668.87 2212.26,70235.80 1932.57,69793.71 2167.15,68918.55 2690.44,68665.93 2537.06,68115.57 2591.20,67456.95 2888.93,66473.52 2843.82,65454.01 3258.84,65120.18 3818.22,65679.56 4476.85,65878.05 5189.61,66383.30 6019.65,66672.01 6804.59,67032.90 7039.17,67465.97 7084.28,68395.26 6948.95,69117.04 6804.59,69956.11 6452.72,70407.23 5974.54,70650.83 5279.83,70813.23 4612.18,70921.50 3881.38,70858.34 3322.00,70668.87 3331.02,70668.87" color="blue">
	<tazSource id="1009943383" weight="1.00"/>
	<tazSink id="1009943383" weight="1.00"/>
	<tazSource id="1010075428" weight="1.00"/>
	<tazSink id="1010075428" weight="1.00"/>
	<tazSource id="106586052" weight="1.00"/>
	<tazSink id="106586052" weight="1.00"/>
	<tazSource id="108390771" weight="1.00"/>
	<tazSink id="108390771" weight="1.00"/>
	<tazSource id="118153963" weight="1.00"/>
	<tazSink id="118153963" weight="1.00"/>
	<tazSource id="118670828#1" weight="1.00"/>
	<tazSink id="118670828#1" weight="1.00"/>
	<tazSource id="12297710#2" weight="1.00"/>
	<tazSink id="12297710#2" weight="1.00"/>
	<tazSource id="12389533" weight="1.00"/>
	<tazSink id="12389533" weight="1.00"/>
	<tazSource id="12543115#1" weight="1.00"/>
	<tazSink id="12543115#1" weight="1.00"/>
	<tazSource id="12543154" weight="1.00"/>
	<tazSink id="12543154" weight="1.00"/>
	<tazSource id="12543263" weight="1.00"/>
	<tazSink id="12543263" weight="1.00"/>
	<tazSource id="12543642" weight="1.00"/>
	<tazSink id="12543642" weight="1.00"/>
	<tazSource id="13702954" weight="1.00"/>
	<tazSink id="13702954" weight="1.00"/>
	<tazSource id="13712407" weight="1.00"/>
	<tazSink id="13712407" weight="1.00"/>
	<tazSource id="13713756" weight="1.00"/>
	<tazSink id="13713756" weight="1.00"/>
	<tazSource id="13713844#0" weight="1.00"/>
	<tazSink id="13713844#0" weight="1.00"/>
	<tazSource id="13713923#2" weight="1.00"/>
	<tazSink id="13713923#2" weight="1.00"/>
	<tazSource id="13798158" weight="1.00"/>
	<tazSink id="13798158" weight="1.00"/>
	<tazSource id="13860802" weight="1.00"/>
	<tazSink id="13860802" weight="1.00"/>
	<tazSource id="139455428" weight="1.00"/>
	<tazSink id="139455428" weight="1.00"/>
	<tazSource id="161124219" weight="1.00"/>
	<tazSink id="161124219" weight="1.00"/>
	<tazSource id="173072184" weight="1.00"/>
	<tazSink id="173072184" weight="1.00"/>
	<tazSource id="196767730#3" weight="1.00"/>
	<tazSink id="196767730#3" weight="1.00"/>
	<tazSource id="24790552" weight="1.00"/>
	<tazSink id="24790552" weight="1.00"/>
	<tazSource id="26735732#1" weight="1.00"/>
	<tazSink id="26735732#1" weight="1.00"/>
	<tazSource id="26735829#3" weight="1.00"/>
	<tazSink id="26735829#3" weight="1.00"/>
	<tazSource id="27292207#0" weight="1.00"/>
	<tazSink id="27292207#0" weight="1.00"/>
	<tazSource id="27293116" weight="1.00"/>
	<tazSink id="27293116" weight="1.00"/>
	<tazSource id="29036536" weight="1.00"/>
	<tazSink id="29036536" weight="1.00"/>
	<tazSource id="30911261#0" weight="1.00"/>
	<tazSink id="30911261#0" weight="1.00"/>
	<tazSource id="30911274" weight="1.00"/>
	<tazSink id="30911274" weight="1.00"/>
	<tazSource id="331868361#0" weight="1.00"/>
	<tazSink id="331868361#0" weight="1.00"/>
	<tazSource id="345566834" weight="1.00"/>
	<tazSink id="345566834" weight="1.00"/>
	<tazSource id="35385034" weight="1.00"/>
	<tazSink id="35385034" weight="1.00"/>
	<tazSource id="37856708#0" weight="1.00"/>
	<tazSink id="37856708#0" weight="1.00"/>
	<tazSource id="390157767" weight="1.00"/>
	<tazSink id="390157767" weight="1.00"/>
	<tazSource id="390157775" weight="1.00"/>
	<tazSink id="390157775" weight="1.00"/>
	<tazSource id="394028171" weight="1.00"/>
	<tazSink id="394028171" weight="1.00"/>
	<tazSource id="398030863" weight="1.00"/>
	<tazSink id="398030863" weight="1.00"/>
	<tazSource id="4256484" weight="1.00"/>
	<tazSink id="4256484" weight="1.00"/>
	<tazSource id="4256485" weight="1.00"/>
	<tazSink id="4256485" weight="1.00"/>
	<tazSource id="4259343" weight="1.00"/>
	<tazSink id="4259343" weight="1.00"/>
	<tazSource id="4259344" weight="1.00"/>
	<tazSink id="4259344" weight="1.00"/>
	<tazSource id="4259345" weight="1.00"/>
	<tazSink id="4259345" weight="1.00"/>
	<tazSource id="460988102" weight="1.00"/>
	<tazSink id="460988102" weight="1.00"/>
	<tazSource id="474423807" weight="1.00"/>
	<tazSink id="474423807" weight="1.00"/>
	<tazSource id="479127830" weight="1.00"/>
	<tazSink id="479127830" weight="1.00"/>
	<tazSource id="479127836" weight="1.00"/>
	<tazSink id="479127836" weight="1.00"/>
	<tazSource id="479192134" weight="1.00"/>
	<tazSink id="479192134" weight="1.00"/>
	<tazSource id="480084928" weight="1.00"/>
	<tazSink id="480084928" weight="1.00"/>
	<tazSource id="480084929#0" weight="1.00"/>
	<tazSink id="480084929#0" weight="1.00"/>
	<tazSource id="480140406" weight="1.00"/>
	<tazSink id="480140406" weight="1.00"/>
	<tazSource id="483715763#1" weight="1.00"/>
	<tazSink id="483715763#1" weight="1.00"/>
	<tazSource id="484778540" weight="1.00"/>
	<tazSink id="484778540" weight="1.00"/>
	<tazSource id="498604771" weight="1.00"/>
	<tazSink id="498604771" weight="1.00"/>
	<tazSource id="508107800" weight="1.00"/>
	<tazSink id="508107800" weight="1.00"/>
	<tazSource id="54375651#0" weight="1.00"/>
	<tazSink id="54375651#0" weight="1.00"/>
	<tazSource id="54375654" weight="1.00"/>
	<tazSink id="54375654" weight="1.00"/>
	<tazSource id="54509443" weight="1.00"/>
	<tazSink id="54509443" weight="1.00"/>
	<tazSource id="547707190#1" weight="1.00"/>
	<tazSink id="547707190#1" weight="1.00"/>
	<tazSource id="63202743#1" weight="1.00"/>
	<tazSink id="63202743#1" weight="1.00"/>
	<tazSource id="63634695" weight="1.00"/>
	<tazSink id="63634695" weight="1.00"/>
	<tazSource id="63634696" weight="1.00"/>
	<tazSink id="63634696" weight="1.00"/>
	<tazSource id="8137307" weight="1.00"/>
	<tazSink id="8137307" weight="1.00"/>
	<tazSource id="835878391#1" weight="1.00"/>
	<tazSink id="835878391#1" weight="1.00"/>
	<tazSource id="839842701" weight="1.00"/>
	<tazSink id="839842701" weight="1.00"/>
	<tazSource id="95117790" weight="1.00"/>
	<tazSink id="95117790" weight="1.00"/>
	<tazSource id="95117793" weight="1.00"/>
	<tazSink id="95117793" weight="1.00"/>
	<tazSource id="95117799" weight="1.00"/>
	<tazSink id="95117799" weight="1.00"/>
	<tazSource id="95127165#1" weight="1.00"/>
	<tazSink id="95127165#1" weight="1.00"/>
	<tazSource id="95362522" weight="1.00"/>
	<tazSink id="95362522" weight="1.00"/>
	<tazSource id="95367752#1" weight="1.00"/>
	<tazSink id="95367752#1" weight="1.00"/>
	<tazSource id="95841115#0" weight="1.00"/>
	<tazSink id="95841115#0" weight="1.00"/>
	<tazSource id="95841144" weight="1.00"/>
	<tazSink id="95841144" weight="1.00"/>
	<tazSource id="95984936" weight="1.00"/>
	<tazSink id="95984936" weight="1.00"/>
	<tazSource id="97721304#1" weight="1.00"/>
	<tazSink id="97721304#1" weight="1.00"/>
	<tazSource id="97721366" weight="1.00"/>
	<tazSink id="97721366" weight="1.00"/>
	<tazSource id="97721395#1" weight="1.00"/>
	<tazSink id="97721395#1" weight="1.00"/>
	<tazSource id="97721397" weight="1.00"/>
	<tazSink id="97721397" weight="1.00"/>
	<tazSource id="98825971" weight="1.00"/>
	<tazSink id="98825971" weight="1.00"/>
	<tazSource id="98835800" weight="1.00"/>
	<tazSink id="98835800" weight="1.00"/>
	<tazSource id="98835987" weight="1.00"/>
	<tazSink id="98835987" weight="1.00"/>
	<tazSource id="99016736" weight="1.00"/>
	<tazSink id="99016736" weight="1.00"/>
	<tazSource id="99185127#0" weight="1.00"/>
	<tazSink id="99185127#0" weight="1.00"/>
	<tazSource id="99185171" weight="1.00"/>
	<tazSink id="99185171" weight="1.00"/>
	<tazSource id="99185201" weight="1.00"/>
	<tazSink id="99185201" weight="1.00"/>
	<tazSource id="99185258#1" weight="1.00"/>
	<tazSink id="99185258#1" weight="1.00"/>
</taz>
