<?xml version="1.0" encoding="UTF-8"?>

<!-- generated on 2022-11-21 12:16:35.209642 by randomTrips.py v1_15_0+0002-e6790248698
<configuration>
    <end value="50"/>
    <length value="True"/>
    <net-file value="porto_clean.net.xml"/>
    <route-file value="porto.rou.xml"/>
</configuration>
-->

<!-- generated on 2022-11-21 12:16:35 by Eclipse SUMO duarouter Version 1.15.0
<configuration xmlns:xsi="http://www.w3.org/2001/XMLSchema-instance" xsi:noNamespaceSchemaLocation="http://sumo.dlr.de/xsd/duarouterConfiguration.xsd">

    <input>
        <net-file value="porto_clean.net.xml"/>
        <route-files value="trips.trips.xml"/>
    </input>

    <output>
        <output-file value="porto.rou.xml"/>
        <alternatives-output value="NUL"/>
    </output>

    <time>
        <begin value="0"/>
        <end value="50"/>
    </time>

    <report>
        <no-warnings value="true"/>
        <ignore-errors value="true"/>
        <no-step-log value="true"/>
    </report>

</configuration>
-->

<routes xmlns:xsi="http://www.w3.org/2001/XMLSchema-instance" xsi:noNamespaceSchemaLocation="http://sumo.dlr.de/xsd/routes_file.xsd">
    <vehicle id="0" depart="0.00">
        <route edges="479198380 106586052"/>
    </vehicle>
    <vehicle id="1" depart="1.00">
        <route edges="34884995 496736159 496736158#0 496736158#1 34704970 34712768#0 34712768#1 34711004#1 35384689 508107809 29036532 508107803 497150666 35446606 497150664 29036539 497150660 29036543 29036544 497153702 526113274 13530808 29036551 404635517 139455413 95984958#1 139455435#0 139455435#1 95117802 95117812#1 95117812#2 712274397#0 712274397#1 95117787#0 95117787#1 95117787#2 95841103#1 99185260 1030031025 97721301 474423793 1030031027 99185124 474423810 95362523 474423809 474423808#0 474423808#1 95117810 712274398#1 95098677#1 95098677#2 95117801 139455439#1 139455449#1 139455457 95374583#1 95374606 1058622673 1058622674 95374587 390157776 526113266 915252792 497150661 12543217 29036542"/>
    </vehicle>
    <vehicle id="2" depart="2.00">
        <route edges="497925444 484986691 508107814 35446605 35384499#1 480148045#0 480148045#1 480148041 478886770 478886769 478886768 480149866 35006697 480142667 478882418 478882416 478882414 478882413 29036509 479365566 479365565 480083543 13798889 13797988#1 479365561 479365562 479365563 478886779 478886778 345566829 345566831 478886777 478886776 478886774 478886772 478886771 480146192"/>
    </vehicle>
    <vehicle id="3" depart="3.00">
        <route edges="95367763#0 95367763#1 460986038 460986037 483715765 35539786#0 35539786#1 35539786#2 447313061 63202744 479165875 453955769 479127855 479127854 106441015 398030859 398030858 479127828 105482346 479187304 453274475 479187301#0 479187301#1 35044065 479192143 95841156 37113029 453274470 479365561 479365562 479365563 478886779 478886778 345566829 345566831 478886777 478886776 478886774 478886772 478886771 480146192 480148052 480148036 497147261 34884993 35539503 497147259 34704921 480148049 480148041 478886770 478886769 478886768 480149866 35006697 480142667 478882418 478882416 478882414 478882413 29036509 479365566 479365565 480083543 13797865#1"/>
    </vehicle>
    <vehicle id="4" depart="4.00">
        <route edges="4256507 479127830 479127829 398030858 479127828 105482346 479187304 453274475 479187301#0 479187301#1 35044065 479192143 95841156 37113029 453274470 479365561 479365562 479365563 478886779 478886778 345566829 345566831 478886777 478886776 478886774 478886772 478886771 480146192 480148052 35006698 34711004#0 34711004#1 35384689 508107809 29036532 508107803 497150666 35446606 497150664 29036539 497150660 29036543 29036544 497153702 526113274 13530808 29036551 404635517 139455413 95984958#1 139455435#0 139455435#1 95117802 95117812#1 95117812#2 712274397#0 712274397#1 95117787#0 54379553 95841152 95841115#1 1067636645"/>
    </vehicle>
    <vehicle id="5" depart="5.00">
        <route edges="29036539 497150660 29036543 29036544 497153702 526113274 13530808 29036551 404635517 139455413 95984958#1 139455435#0 139455435#1 95117802 95117812#1 95117812#2 712274397#0 712274397#1 95117787#0 95117787#1 95117787#2 95841103#1 95841103#2 474423785 474423788 24790606 332930861 461173094 95367763#0 95367763#1 460986038 460986037 483715765 35539786#0 35539786#1 35539786#2 447313061 63202744 479165875 453955769 479127855 479127854 386578590 663340772 479127852 479127851 479127850 479127839 4256491 108390772 158900210 398030861 105482347 479127846 106441012 479127845 479127844 479181462 479181124 479178724 479178722 479178723 597084097 597084096 453955770 63202741 479165072 415566516 447313531 447313062 453294700 597084095 461172813"/>
    </vehicle>
    <vehicle id="7" depart="7.00">
        <route edges="479365561 479365562 479365563 478886779 478886778 345566829 345566831 478886777 478886776 478886774 478886772 478886771 480146192 480148052 35006698 34711004#0 34711004#1 35384689 508107809 29036532 508107803 497150666 35446606 497150664 29036539 497150660 29036543 29036544 497153702 526113274 13530808 29036551 404635517 139455413 95984958#1 139455435#0 139455435#1 95117802 95117812#1 95117812#2 712274397#0 712274397#1 95117787#0 95117787#1 95117787#2 95841103#1 99185260 1030031025 97721301 474423793 1030031027 99185124 474423810 95362523 474423809 474423808#0 474423808#1"/>
    </vehicle>
    <vehicle id="8" depart="8.00">
        <route edges="29036539 497150660 29036543 29036544 497153702 526113274 13530808 29036551 404635517 139455413 95984958#1 139455435#0 139455435#1 95117802 95117812#1 95117812#2 712274397#0 712274397#1 95117787#0 95117787#1 95117787#2 95841103#1 95841103#2 474423785 474423788 24790606 332930861 461173094 95367763#0 95367763#1 460986038 460986037 483715765 35539786#0 35539786#1 35539786#2 447313061 63202744 479165875 453955769 479127855 479127854 106441015 398030859 398030858 479127828 105482346 479187304 453274475 479187301#0 479187301#1 35044065 479192143 95841156 37113029 453274470 479365561 479365562 479365563 478886779"/>
    </vehicle>
    <vehicle id="9" depart="9.00">
        <route edges="915252792 497150661 12543217 29036542 12543322 12543115#2 12543115#3 12543140 497153702 526113274 13530808 29036551 404635517 139455413 95984958#1 139455435#0 139455435#1 95117802 95117812#1 95117812#2 712274397#0 712274397#1 95117787#0 95117787#1 95117787#2 95841103#1 95841103#2 474423785 474423788 24790606 332930861 461173094 95367763#0 95367763#1 460986038 460986037 483715765 35539786#0 35539786#1 35539786#2 447313061 63202744 479165875 453955769 479127855 479127854 106441015 398030859 398030858 479127828 105482346"/>
    </vehicle>
    <vehicle id="10" depart="10.00">
        <route edges="915252792 497150661 12543217 29036542 12543322 12543115#2 12543115#3 12543140 497153702 526113274 13530808 29036551 404635517 139455413 95984958#1 139455435#0 139455435#1 95117802 95117812#1 95117812#2 712274397#0 712274397#1 95117787#0 95117787#1 95117787#2 95841103#1 95841103#2 474423785 474423788 24790606 332930861 461173094 95367763#0 95367763#1 460986038 460986037 483715765"/>
    </vehicle>
    <vehicle id="12" depart="12.00">
        <route edges="95841144 95841106 447313531 447313062 453294700 597084095 461172813 597084094 597084093 405899851 460986053 1096803816 460986048 140047503 461026630 838262717 778337232 332930860 460986036 332930861 461173094 95367763#0 95367763#1 460986038 460986037 483715765 35539786#0 35539786#1 35539786#2 447313061 63202744 479165875 453955769 479127855 479127854 106441015 398030859 398030858 479127828 105482346 479187304 453274475 479187301#0 479187301#1 35044065 479192143 95841156 37113029 453274470 479365561 479365562 479365563 478886779 478886778 345566829 345566831 478886777 478886776 478886774 478886772 478886771 480146192 480148052 35006698 34711004#0 34711004#1 35384689 508107809 29036532 508107803 497150666 35446606"/>
    </vehicle>
    <vehicle id="13" depart="13.00">
        <route edges="13530808 29036551 404635517 139455413 95984958#1 139455435#0 139455435#1 95117802 95117812#1 95117812#2 712274397#0 712274397#1 95117787#0 95117787#1 95117787#2 95841103#1 95841103#2 474423785 474423788 24790606 332930861 461173094 95367763#0 95367763#1 460986038 460986037 483715765 35539786#0 35539786#1 35539786#2 447313061 63202744 479165875 453955769 479127855 479127854 106441015 398030859 398030858 479127828 105482346 479187304 453274475 479187301#0 479187301#1 35044065 479192143 95841156 37113029 480083544 13797951#0 13797951#1 13798768 13797988#0 13797988#1"/>
    </vehicle>
    <vehicle id="14" depart="14.00">
        <route edges="95117810 712274398#1 95098677#1 95098677#2 95117801 139455439#1 139455449#1 139455457 95374583#1 95374606 1058622673 1058622674 95374587 390157776 526113266 915252792 497150661 12543217 29036542 12543322 12543115#2 12543115#3 12543140 497153702 526113274 13530808 29036551 404635517 139455413 95984958#1 139455435#0 139455435#1 95117802 95117812#1 95117812#2 712274397#0 712274397#1 95117787#0 95117787#1 95117787#2 95841103#1 95841103#2 474423785 474423788 24790606 332930861 461173094 95367763#0 95367763#1 460986038 460986037 483715765 35539786#0 35539786#1 35539786#2 447313061 63202744 479165875 453955769 479127855 479127854 386578590 663340772 479127852"/>
    </vehicle>
    <vehicle id="16" depart="16.00">
        <route edges="461173094 95367763#0 95367763#1 460986038 460986037 483715765 35539786#0 35539786#1 35539786#2 447313061 63202744 479165875 453955769 479127855 479127854 106441015 398030859 398030858 479127828 105482346 479187304 453274475 479187301#0 479187301#1 35044065 479192143 95841156 37113029 453274470 479365561 479365562 479365563 478886779 478886778 345566829 345566831 478886777 478886776 478886774 478886772 478886771 480146192 480148052 35006698 34711004#0 34711004#1 35384689 508107809 29036532 508107803 497150666 35446606 497150664 29036539 497150660 29036543 29036544 497153702 526113274 13530808 29036551 404635517 139455413 139465323 97721305#1"/>
    </vehicle>
    <vehicle id="17" depart="17.00">
        <route edges="398030859 398030858 479127828 105482346 479187304 453274475 479187301#0 479187301#1 35044065 479192143 95841156 37113029 453274470 479365561 479365562 479365563 478886779 478886778 345566829 345566831 478886777 478886776 478886774 478886772 478886771 480146192 480148052 35006698 34711004#0 34711004#1 35384689 508107809 29036532 508107803 497150666 35446606 497150664 29036539 497150660 29036543 29036544 497153702 526113274 13530808 29036551 404635517 139455413 95984958#1 139455435#0 139455435#1 95117802 95117812#1 95117812#2 712274397#0 712274397#1 95117787#0 95117787#1 95117787#2 95841103#1 99185260 1030031025 97721301 474423793 1030031027 99185124 474423810"/>
    </vehicle>
    <vehicle id="18" depart="18.00">
        <route edges="95117787#2 95841103#1 95841103#2 474423785 474423788 24790606 332930861 461173094 95367763#0 95367763#1 460986038 460986037 483715765 35539786#0 35539786#1 35539786#2 447313061 63202744 479165875 453955769 479127855 479127854 106441015 398030859 398030858 479127828 105482346 479187304 453274475 479187301#0"/>
    </vehicle>
    <vehicle id="21" depart="21.00">
        <route edges="29036551 404635517 139455413 95984958#1 139455435#0 139455435#1 95117802 95117812#1 95117812#2 712274397#0 712274397#1 95117787#0 95117787#1 95117787#2 95841103#1 95841103#2 474423785 474423788 24790606 332930861 461173094 95367763#0 95367763#1 460986038 460986037 483715765 35539786#0 35539786#1 35539786#2 447313061 63202744 479165875 453955769 479127855 479127854 106441015 398030859 398030858 479127828 105482346 479187304 453274475 479187301#0 479187301#1 35044065 479192143 95841156 37113029 453274470 479365561 479365562 479365563 478886779 478886778 345566829 345566831 478886777 478886776 478886774 478886772 478886771 480146192 480148052 35006698"/>
    </vehicle>
    <vehicle id="23" depart="23.00">
        <route edges="13797903#1 480083542 479192142 479192141 479192140 479192137 304693637 479192135 453274492 479198388 479198385 95841148 479198383 479187301#1 35044065 479192143 95841156 37113029 453274470 479365561 479365562 479365563 478886779 478886778 345566829 345566831 478886777 478886776 478886774 478886772 478886771 480146192 480148052 480148036 497147261 34884993 34884995"/>
    </vehicle>
    <vehicle id="24" depart="24.00">
        <route edges="479192142 479192141 479192140 479192137 304693637 479192135 453274492 479198388 479198385 95841148 479198383 479187301#1 35044065 479192143 95841156 37113029 453274470 479365561 479365562 479365563 478886779 478886778 345566829 345566831 478886777 478886776 478886774 478886772 478886771 480146192 480148052 480148036 497147261 34884993 35539503 497147259 34704921 480148049 480148041 478886770 478886769 478886768 37856708#0"/>
    </vehicle>
    <vehicle id="25" depart="25.00">
        <route edges="394028171 474423808#1 95117810 712274398#1 95098677#1 95098677#2 95117801 139455439#1 139455449#1 139455457 95374583#1 95374606 1058622673 1058622674 95374587 390157776 526113266 915252792 497150661 29036540 497925444 484986691 508107814 35446605 35384499#1 480148045#0 480148045#1 480148041 478886770 478886769 478886768 480149866 35006697 480142667 478882418 478882416 478882414 478882413 29036509"/>
    </vehicle>
    <vehicle id="27" depart="27.00">
        <route edges="479198391 106586101#0 106586101#1 1009943383 479187303 479192145 35047582 398030856 479127848 398030857 398030861 105482347 479127846 106441012 479127845 479127844 479181462 479181124 479178724 479178722 479178723 597084097 597084096 453955770 63202741 479165072"/>
    </vehicle>
    <vehicle id="29" depart="29.00">
        <route edges="139465323 97721305#1 139455455 95117802 95117812#1 95117812#2 712274397#0 712274397#1 95117787#0 95117787#1 95117787#2 95841103#1 95841103#2 474423785 474423788 24790606 332930861 461173094 95367763#0 95367763#1 460986038 460986037 483715765 35539786#0 35539786#1 35539786#2 447313061 63202744 479165875 453955769 479127855 479127854 106441015 398030859"/>
    </vehicle>
    <vehicle id="31" depart="31.00">
        <route edges="474423812 474423811 474423810 95362523 474423809 474423808#0 474423808#1 95117810 712274398#1 95098677#1 95098677#2 95117801 139455439#1 139455449#1 139455457 95374583#1 95374606 1058622673 1058622674 95374587 390157776 526113266 915252792 497150661 29036540 497925444 484986691 508107814 35446605 35384499#1 480148045#0"/>
    </vehicle>
    <vehicle id="32" depart="32.00">
        <route edges="95117802 95117812#1 95117812#2 712274397#0 712274397#1 95117787#0 95117787#1 95117787#2 95841103#1 99185260 1030031025 97721301 474423793 1030031027 99185124 474423810 95362523 474423809 474423808#0 474423808#1 95117810 712274398#1"/>
    </vehicle>
    <vehicle id="33" depart="33.00">
        <route edges="29036551 404635517 139455413 95984958#1 139455435#0 139455435#1 95117802 95117812#1 95117812#2 712274397#0 712274397#1 95117787#0 95117787#1 95117787#2 95841103#1 95841103#2 474423785 474423788 24790606 332930861 461173094 95367763#0 95367763#1 460986038 460986037 483715765 35539786#0 35539786#1 35539786#2 447313061 63202744 479165875 453955769 479127855 479127854 386578590 663340772 479127852 479127851 479127850 479127839 4256491 108390772 158900210 398030861 105482347 479127846 106441012 479127845 479127844 479181462 479181124 479178724 479178722 479178723 597084097 597084096 453955770 63202741 479165072 415566516 447313531 447313062 453294700 597084095 461172813 597084094 597084093 405899851 460986053 1096803816"/>
    </vehicle>
    <vehicle id="34" depart="34.00">
        <route edges="35384499#1 480148045#0 480148045#1 480148041 478886770 478886769 478886768 480149866 35006697 480142667 478882418 478882416 478882414 478882413 29036509 479365566 479365565 480083543 13798889 13797988#1 479365561 479365562 479365563 478886779 478886778 345566829 345566831 478886777 478886776 478886774 478886772 478886771 480146192 480148052 35006698 34711004#0 34711004#1"/>
    </vehicle>
    <vehicle id="36" depart="36.00">
        <route edges="95367752#0 95367752#1 332930857 4302771 461173094 95367763#0 95367763#1 460986038 460986037 483715765 35539786#0 35539786#1 35539786#2 447313061 63202744 479165875 453955769 479127855 479127854 106441015 398030859 398030858 479127828 105482346 479187304 453274475 479187301#0 479187301#1 35044065 479192143 95841156 37113029 480083544 13797951#0 13798931 13797903#1 480083542 479192142 479192141 479192140 35044066 479192138 479187303 479192145 35047582"/>
    </vehicle>
    <vehicle id="37" depart="37.00">
        <route edges="479365563 478886779 478886778 345566829 345566831 478886777 478886776 478886774 478886772 478886771 480146192 480148052 480148036 497147261 34884993 35539503 497147259 34704921 480148049 480148041 478886770 478886769 478886768 480149866 35006697 480142667 478882418 478882416 478882414 478882413 29036509 479365566 479365565 479365568 479192142 479192141 479192140 35044066 479192138 479187303 479192145 35047582 398030856 479127848 398030857 398030861 105482347 479127846 106441012 479127845 479127844 479181462 479181124 479178724 479178722 479178723 597084097 597084096 453955770 63202741 479165072 415566516 447313531 447313062 453294700 597084095 461172813 597084094 597084093 405899851"/>
    </vehicle>
    <vehicle id="38" depart="38.00">
        <route edges="95374583#1 95374606 1058622673 1058622674 95374587 390157776 526113266 915252792 497150661 29036540 497925444 484986691 508107814 35446605 35384499#1 480148045#0 480148045#1 480148041 478886770 478886769 478886768 480149866 35006697 480142667 478882418 478882416 478882414 478882413 29036509 479365566 479365565 479365568 479192142 479192141 479192140 479192137 304693637 479192135 453274492 479198388 479198385 95841148 479198383 479187301#1 35044065 479192143 95841156 37113029 453274470"/>
    </vehicle>
    <vehicle id="39" depart="39.00">
        <route edges="34711004#1 35384689 508107809 29036532 508107803 497150666 35446606 497150664 29036539 497150660 29036543 29036544 497153702 526113274 13530808 29036551 404635517 139455413 95984958#1 139455435#0 139455435#1 95117802 95117812#1 95117812#2 712274397#0 712274397#1 95117787#0 95117787#1 95117787#2 95841103#1 99185260 1030031025 97721301 474423793 1030031027 99185124 474423810 331868361#0"/>
    </vehicle>
    <vehicle id="40" depart="40.00">
        <route edges="478882416 478882414 478882413 29036509 479365566 479365565 480083543 13798889 13797988#1 479365561 479365562 479365563 478886779 478886778 4259341 345566834"/>
    </vehicle>
    <vehicle id="41" depart="41.00">
        <route edges="478886777 478886776 478886774 478886772 478886771 480146192 480148052 35006698 34711004#0 34711004#1 35384689 508107809 29036532 508107803 497150666 35446606 497150664 29036539 497150660 29036543 29036544 497153702 526113274 13530808 29036551 404635517 139455413 95984958#1 139455435#0 139455435#1 95117802 95117812#1 95117812#2 712274397#0 712274397#1 95117787#0 95117787#1 95117787#2 95841103#1 95841103#2 474423785 474423788 24790606 332930861 461173094 95367763#0 95367763#1"/>
    </vehicle>
    <vehicle id="42" depart="42.00">
        <route edges="405899851 460986053 1096803816 460986048 140047503 461026630 838262717 778337232 332930860 460986036 332930861 461173094 95367763#0 95367763#1 460986038 460986037 483715765 35539786#0 35539786#1 35539786#2 447313061 63202744 479165875 453955769 479127855 479127854 106441015 398030859 398030858 479127828 105482346 479187304 453274475 479187301#0 479187301#1 35044065 479192143 95841156 37113029 453274470 479365561 479365562 479365563 478886779 478886778 345566829 345566831 478886777 478886776 478886774 478886772 478886771 480146192 480148052 35006698 34711004#0 34711004#1 35384689 508107809 29036532 508107803 497150666 35446606 497150664 29036539"/>
    </vehicle>
    <vehicle id="43" depart="43.00">
        <route edges="99185171 474423785 474423788 24790606 332930861 461173094 95367763#0 95367763#1 460986038 460986037 483715765 35539786#0 35539786#1 35539786#2 447313061 63202744 479165875 453955769 479127855 479127854 386578590 663340772 479127852 479127851 479127850 479127839 4256491 108390772 158900210 398030861 105482347 479127846 106441012 479127845 479127844 479181462 479181124 479178724 479178722 479178723 597084097 597084096 453955770 63202741 479165072 415566516 447313531 447313062 453294700 597084095 461172813"/>
    </vehicle>
    <vehicle id="47" depart="47.00">
        <route edges="12543140 497153702 526113274 13530808 29036551 404635517 139455413 95984958#1 139455435#0 139455435#1 95117802 95117812#1 95117812#2 712274397#0 712274397#1 95117787#0 95117787#1 95117787#2 95841103#1 95841103#2 474423785 474423788 24790606 332930861 461173094 95367763#0 95367763#1 460986038 460986037 483715765 35539786#0 35539786#1 35539786#2 447313061 63202744 479165875 453955769 479127855 479127854 106441015 398030859"/>
    </vehicle>
    <vehicle id="48" depart="48.00">
        <route edges="99185139 474423807 1030031028 483715733 99185130 483715735 1030031027 99185124 474423810 95362523 474423809 474423808#0 474423808#1 95117810 712274398#1 95098677#1 95098677#2 95117801 139455439#1 139455449#1 139455457 95374583#1 95374606 1058622673 1058622674 95374587 390157776 526113266 915252792 497150661 12543217 29036542 12543322 12543115#2 12543115#3 12543140 497153702 526113274 13530808 29036551 404635517 139455413 95984958#1 139455435#0 139455435#1 95117802 95117812#1 95117812#2 712274397#0 712274397#1 95117787#0 95117787#1 95117787#2 95841103#1 95841103#2 474423785 474423788 24790606 332930861 461173094"/>
    </vehicle>
    <vehicle id="49" depart="49.00">
        <route edges="95984945 26735829#2 95984899 139455435#0 139455435#1 95117802 95117812#1 95117812#2 712274397#0 712274397#1 95117787#0 95117787#1 95117787#2 95841103#1 99185260 1030031025 97721301 474423793 1030031027 99185124 474423810 95362523 474423809 474423808#0 474423808#1 95117810"/>
    </vehicle>
</routes>
