<?xml version="1.0" encoding="UTF-8"?>

<!-- generated on 2022-11-21 11:52:03 by Eclipse SUMO netedit Version 1.15.0
<configuration xmlns:xsi="http://www.w3.org/2001/XMLSchema-instance" xsi:noNamespaceSchemaLocation="http://sumo.dlr.de/xsd/netconvertConfiguration.xsd">

    <input>
        <sumo-net-file value="C:\Users\julia\Desktop\porto.net.xml"/>
    </input>

    <output>
        <output-file value="C:\Users\julia\Desktop\porto_clean.net.xml"/>
    </output>

    <processing>
        <geometry.min-radius.fix.railways value="false"/>
        <geometry.max-grade.fix value="false"/>
        <offset.disable-normalization value="true"/>
        <lefthand value="0"/>
    </processing>

    <junctions>
        <no-turnarounds value="true"/>
        <junctions.corner-detail value="5"/>
        <junctions.limit-turn-speed value="5.50"/>
        <rectangular-lane-cut value="0"/>
    </junctions>

    <pedestrian>
        <walkingareas value="0"/>
    </pedestrian>

</configuration>
-->

<net version="1.9" junctionCornerDetail="5" limitTurnSpeed="5.50" xmlns:xsi="http://www.w3.org/2001/XMLSchema-instance" xsi:noNamespaceSchemaLocation="http://sumo.dlr.de/xsd/net_file.xsd">

    <location netOffset="-527942.18,-4486916.33" convBoundary="0.00,64159.00,9170.23,72362.08" origBoundary="-8.675949,40.532139,-8.491512,41.184027" projParameter="+proj=utm +zone=29 +ellps=WGS84 +datum=WGS84 +units=m +no_defs"/>

    <type id="highway.bridleway" priority="1" numLanes="1" speed="2.78" allow="pedestrian" oneway="1" width="2.00"/>
    <type id="highway.bus_guideway" priority="1" numLanes="1" speed="27.78" allow="bus" oneway="1"/>
    <type id="highway.cycleway" priority="1" numLanes="1" speed="5.56" allow="bicycle" oneway="0" width="1.00"/>
    <type id="highway.footway" priority="1" numLanes="1" speed="2.78" allow="pedestrian" oneway="1" width="2.00"/>
    <type id="highway.ford" priority="1" numLanes="1" speed="2.78" allow="army" oneway="0"/>
    <type id="highway.living_street" priority="2" numLanes="1" speed="2.78" disallow="tram rail_urban rail rail_electric rail_fast ship" oneway="0"/>
    <type id="highway.motorway" priority="14" numLanes="2" speed="39.44" allow="private emergency authority army vip passenger hov taxi bus coach delivery truck trailer motorcycle evehicle custom1 custom2" oneway="1"/>
    <type id="highway.motorway_link" priority="9" numLanes="1" speed="22.22" allow="private emergency authority army vip passenger hov taxi bus coach delivery truck trailer motorcycle evehicle custom1 custom2" oneway="1"/>
    <type id="highway.path" priority="1" numLanes="1" speed="5.56" allow="pedestrian bicycle" oneway="0" width="2.00"/>
    <type id="highway.pedestrian" priority="1" numLanes="1" speed="2.78" allow="pedestrian" oneway="1" width="2.00"/>
    <type id="highway.primary" priority="12" numLanes="2" speed="27.78" disallow="tram rail_urban rail rail_electric rail_fast ship" oneway="0"/>
    <type id="highway.primary_link" priority="7" numLanes="1" speed="22.22" disallow="tram rail_urban rail rail_electric rail_fast ship" oneway="0"/>
    <type id="highway.raceway" priority="15" numLanes="2" speed="83.33" allow="vip" oneway="0"/>
    <type id="highway.residential" priority="3" numLanes="1" speed="13.89" disallow="tram rail_urban rail rail_electric rail_fast ship" oneway="0"/>
    <type id="highway.secondary" priority="11" numLanes="1" speed="27.78" disallow="tram rail_urban rail rail_electric rail_fast ship" oneway="0"/>
    <type id="highway.secondary_link" priority="6" numLanes="1" speed="22.22" disallow="tram rail_urban rail rail_electric rail_fast ship" oneway="0"/>
    <type id="highway.service" priority="1" numLanes="1" speed="5.56" allow="pedestrian delivery bicycle" oneway="0"/>
    <type id="highway.stairs" priority="1" numLanes="1" speed="1.39" allow="pedestrian" oneway="1" width="2.00"/>
    <type id="highway.step" priority="1" numLanes="1" speed="1.39" allow="pedestrian" oneway="1" width="2.00"/>
    <type id="highway.steps" priority="1" numLanes="1" speed="1.39" allow="pedestrian" oneway="1" width="2.00"/>
    <type id="highway.tertiary" priority="10" numLanes="1" speed="22.22" disallow="tram rail_urban rail rail_electric rail_fast ship" oneway="0"/>
    <type id="highway.tertiary_link" priority="5" numLanes="1" speed="22.22" disallow="tram rail_urban rail rail_electric rail_fast ship" oneway="0"/>
    <type id="highway.track" priority="1" numLanes="1" speed="5.56" allow="pedestrian motorcycle moped bicycle" oneway="0"/>
    <type id="highway.trunk" priority="13" numLanes="2" speed="27.78" disallow="pedestrian bicycle tram rail_urban rail rail_electric rail_fast ship" oneway="0"/>
    <type id="highway.trunk_link" priority="8" numLanes="1" speed="22.22" disallow="pedestrian bicycle tram rail_urban rail rail_electric rail_fast ship" oneway="0"/>
    <type id="highway.unclassified" priority="4" numLanes="1" speed="13.89" disallow="tram rail_urban rail rail_electric rail_fast ship" oneway="0"/>
    <type id="highway.unsurfaced" priority="1" numLanes="1" speed="8.33" disallow="tram rail_urban rail rail_electric rail_fast ship" oneway="0"/>
    <type id="railway.highspeed" priority="21" numLanes="1" speed="69.44" allow="rail_fast" oneway="1"/>
    <type id="railway.light_rail" priority="19" numLanes="1" speed="27.78" allow="rail_urban" oneway="1"/>
    <type id="railway.preserved" priority="16" numLanes="1" speed="27.78" allow="rail" oneway="1"/>
    <type id="railway.rail" priority="20" numLanes="1" speed="44.44" allow="rail" oneway="1"/>
    <type id="railway.subway" priority="18" numLanes="1" speed="27.78" allow="rail_urban" oneway="1"/>
    <type id="railway.tram" priority="17" numLanes="1" speed="13.89" allow="tram" oneway="1"/>

    <edge id=":1103406302_0" function="internal">
        <lane id=":1103406302_0_0" index="0" allow="private emergency authority army vip passenger hov taxi bus coach delivery truck trailer motorcycle evehicle custom1 custom2" speed="23.61" length="0.32" shape="4407.66,65526.09 4407.81,65526.11 4407.90,65526.13 4408.00,65526.15 4408.14,65526.18"/>
        <lane id=":1103406302_0_1" index="1" allow="private emergency authority army vip passenger hov taxi bus coach delivery truck trailer motorcycle evehicle custom1 custom2" speed="23.61" length="0.32" shape="4407.22,65529.26 4407.26,65529.27 4407.30,65529.27 4407.33,65529.28 4407.37,65529.29"/>
    </edge>
    <edge id=":1103406307_0" function="internal">
        <lane id=":1103406307_0_0" index="0" allow="private emergency authority army vip passenger hov taxi bus coach delivery truck trailer motorcycle evehicle custom1 custom2" speed="22.22" length="21.67" shape="4807.36,65721.00 4804.17,65718.44 4800.54,65715.13 4796.05,65711.46 4790.22,65707.83"/>
    </edge>
    <edge id=":1103406307_1" function="internal">
        <lane id=":1103406307_1_0" index="0" allow="private emergency authority army vip passenger hov taxi bus coach delivery truck trailer motorcycle evehicle custom1 custom2" speed="22.22" length="21.31" shape="4809.26,65717.44 4790.22,65707.83"/>
        <lane id=":1103406307_1_1" index="1" allow="private emergency authority army vip passenger hov taxi bus coach delivery truck trailer motorcycle evehicle custom1 custom2" speed="22.22" length="21.31" shape="4810.71,65714.59 4791.71,65704.99"/>
    </edge>
    <edge id=":1103406316_0" function="internal">
        <lane id=":1103406316_0_0" index="0" allow="private emergency authority army vip passenger hov taxi bus coach delivery truck trailer motorcycle evehicle custom1 custom2" speed="22.22" length="16.53" shape="4801.45,65695.13 4806.29,65697.42 4810.13,65698.91 4813.48,65699.99 4816.85,65701.08"/>
    </edge>
    <edge id=":1103406316_1" function="internal">
        <lane id=":1103406316_1_0" index="0" allow="private emergency authority army vip passenger hov taxi bus coach delivery truck trailer motorcycle evehicle custom1 custom2" speed="22.22" length="16.54" shape="4801.45,65695.13 4805.72,65697.61 4808.40,65699.69 4811.00,65701.91 4815.03,65704.81"/>
        <lane id=":1103406316_1_1" index="1" allow="private emergency authority army vip passenger hov taxi bus coach delivery truck trailer motorcycle evehicle custom1 custom2" speed="22.22" length="16.54" shape="4799.99,65697.97 4804.17,65700.41 4806.79,65702.46 4809.33,65704.65 4813.28,65707.49"/>
    </edge>
    <edge id=":1103406350_0" function="internal">
        <lane id=":1103406350_0_0" index="0" allow="private emergency authority army vip passenger hov taxi bus coach delivery truck trailer motorcycle evehicle custom1 custom2" speed="25.00" length="0.28" shape="5773.79,66085.63 5774.05,66085.65"/>
        <lane id=":1103406350_0_1" index="1" allow="private emergency authority army vip passenger hov taxi bus coach delivery truck trailer motorcycle evehicle custom1 custom2" speed="25.00" length="0.28" shape="5773.62,66088.83 5773.94,66088.84"/>
    </edge>
    <edge id=":1103406407_0" function="internal">
        <lane id=":1103406407_0_0" index="0" allow="private emergency authority army vip passenger hov taxi bus coach delivery truck trailer motorcycle evehicle custom1 custom2" speed="25.00" length="20.08" shape="4950.36,65766.96 4954.04,65767.95 4958.33,65768.37 4963.62,65768.53 4970.29,65768.71"/>
    </edge>
    <edge id=":1103406407_1" function="internal">
        <lane id=":1103406407_1_0" index="0" disallow="tram rail_urban rail rail_electric rail_fast ship" speed="27.78" length="16.94" shape="4953.30,65772.01 4958.25,65770.44 4961.67,65769.34 4965.16,65768.75 4970.29,65768.71"/>
        <lane id=":1103406407_1_1" index="1" disallow="tram rail_urban rail rail_electric rail_fast ship" speed="27.78" length="16.94" shape="4954.18,65775.08 4958.84,65773.60 4962.06,65772.54 4965.33,65771.95 4970.17,65771.90"/>
    </edge>
    <edge id=":1103406460_0" function="internal">
        <lane id=":1103406460_0_0" index="0" allow="private emergency authority army vip passenger hov taxi bus coach delivery truck trailer motorcycle evehicle custom1 custom2" speed="30.83" length="0.39" shape="4405.40,65538.90 4405.34,65538.89 4405.31,65538.88 4405.27,65538.87 4405.21,65538.87"/>
        <lane id=":1103406460_0_1" index="1" allow="private emergency authority army vip passenger hov taxi bus coach delivery truck trailer motorcycle evehicle custom1 custom2" speed="30.83" length="0.39" shape="4406.16,65535.79 4405.99,65535.75 4405.87,65535.73 4405.75,65535.71 4405.58,65535.69"/>
    </edge>
    <edge id=":1103406484_0" function="internal">
        <lane id=":1103406484_0_0" index="0" allow="private emergency authority army vip passenger hov taxi bus coach delivery truck trailer motorcycle evehicle custom1 custom2" speed="18.05" length="0.10" shape="5092.93,65850.84 5092.93,65850.84"/>
    </edge>
    <edge id=":1103406498_0" function="internal">
        <lane id=":1103406498_0_0" index="0" allow="private emergency authority army vip passenger hov taxi bus coach delivery truck trailer motorcycle evehicle custom1 custom2" speed="30.83" length="8.17" shape="5832.23,66102.69 5829.84,66102.74 5828.22,66103.18 5826.60,66103.66 5824.20,66103.83"/>
    </edge>
    <edge id=":1103406498_1" function="internal">
        <lane id=":1103406498_1_0" index="0" allow="private emergency authority army vip passenger hov taxi bus coach delivery truck trailer motorcycle evehicle custom1 custom2" speed="39.44" length="7.99" shape="5832.18,66104.11 5824.20,66103.83"/>
        <lane id=":1103406498_1_1" index="1" allow="private emergency authority army vip passenger hov taxi bus coach delivery truck trailer motorcycle evehicle custom1 custom2" speed="39.44" length="7.99" shape="5832.30,66100.91 5824.31,66100.63"/>
    </edge>
    <edge id=":1103406500_0" function="internal">
        <lane id=":1103406500_0_0" index="0" allow="private emergency authority army vip passenger hov taxi bus coach delivery truck trailer motorcycle evehicle custom1 custom2" speed="30.83" length="0.10" shape="4809.34,65717.48 4809.44,65717.53"/>
        <lane id=":1103406500_0_1" index="1" allow="private emergency authority army vip passenger hov taxi bus coach delivery truck trailer motorcycle evehicle custom1 custom2" speed="30.83" length="0.10" shape="4810.83,65714.65 4810.89,65714.68"/>
    </edge>
    <edge id=":1105984386_0" function="internal">
        <lane id=":1105984386_0_0" index="0" allow="private emergency authority army vip passenger hov taxi bus coach delivery truck trailer motorcycle evehicle custom1 custom2" speed="22.22" length="9.71" shape="3700.71,71256.49 3702.78,71254.74 3703.56,71252.90 3704.15,71250.84 3705.68,71248.42"/>
    </edge>
    <edge id=":1105984390_0" function="internal">
        <lane id=":1105984390_0_0" index="0" allow="private emergency authority army vip passenger hov taxi bus coach delivery truck trailer motorcycle evehicle custom1 custom2" speed="19.10" length="7.66" shape="3679.99,71164.94 3677.76,71164.74 3676.23,71164.93 3674.70,71165.38 3672.50,71165.98"/>
    </edge>
    <edge id=":1105984390_1" function="internal">
        <lane id=":1105984390_1_0" index="0" allow="private emergency authority army vip passenger hov taxi bus coach delivery truck trailer motorcycle evehicle custom1 custom2" speed="22.22" length="8.23" shape="3680.48,71161.78 3678.08,71161.68 3676.42,71162.02 3674.75,71162.37 3672.35,71162.29"/>
        <lane id=":1105984390_1_1" index="1" allow="private emergency authority army vip passenger hov taxi bus coach delivery truck trailer motorcycle evehicle custom1 custom2" speed="22.22" length="8.23" shape="3680.96,71158.61 3678.56,71158.51 3676.89,71158.86 3675.22,71159.20 3672.81,71159.12"/>
        <lane id=":1105984390_1_2" index="2" allow="private emergency authority army vip passenger hov taxi bus coach delivery truck trailer motorcycle evehicle custom1 custom2" speed="22.22" length="8.23" shape="3681.45,71155.45 3679.03,71155.35 3677.36,71155.69 3675.69,71156.04 3673.27,71155.95"/>
    </edge>
    <edge id=":1105984398_0" function="internal">
        <lane id=":1105984398_0_0" index="0" allow="private emergency authority army vip passenger hov taxi bus coach delivery truck trailer motorcycle evehicle custom1 custom2" speed="20.83" length="7.13" shape="3717.14,71231.25 3718.17,71229.39 3718.90,71228.12 3719.43,71226.77 3719.82,71224.72"/>
    </edge>
    <edge id=":1105984398_1" function="internal">
        <lane id=":1105984398_1_0" index="0" disallow="pedestrian bicycle tram rail_urban rail rail_electric rail_fast ship" speed="19.44" length="7.56" shape="3720.66,71232.32 3721.14,71230.15 3721.80,71228.73 3722.47,71227.32 3722.99,71225.15"/>
        <lane id=":1105984398_1_1" index="1" disallow="pedestrian bicycle tram rail_urban rail rail_electric rail_fast ship" speed="19.44" length="7.56" shape="3723.83,71232.70 3724.31,71230.54 3724.97,71229.14 3725.65,71227.74 3726.16,71225.58"/>
    </edge>
    <edge id=":1110673412_0" function="internal">
        <lane id=":1110673412_0_0" index="0" allow="private emergency authority army vip passenger hov taxi bus coach delivery truck trailer motorcycle evehicle custom1 custom2" speed="22.22" length="0.29" shape="3980.70,71182.80 3981.05,71182.84"/>
        <lane id=":1110673412_0_1" index="1" allow="private emergency authority army vip passenger hov taxi bus coach delivery truck trailer motorcycle evehicle custom1 custom2" speed="22.22" length="0.29" shape="3980.32,71185.97 3980.63,71186.01"/>
        <lane id=":1110673412_0_2" index="2" allow="private emergency authority army vip passenger hov taxi bus coach delivery truck trailer motorcycle evehicle custom1 custom2" speed="22.22" length="0.29" shape="3979.95,71189.15 3980.21,71189.19"/>
        <lane id=":1110673412_0_3" index="3" allow="private emergency authority army vip passenger hov taxi bus coach delivery truck trailer motorcycle evehicle custom1 custom2" speed="22.22" length="0.29" shape="3979.57,71192.33 3979.79,71192.36"/>
    </edge>
    <edge id=":1110673417_0" function="internal">
        <lane id=":1110673417_0_0" index="0" allow="private emergency authority army vip passenger hov taxi bus coach delivery truck trailer motorcycle evehicle custom1 custom2" speed="22.22" length="8.18" shape="2473.96,68596.68 2471.73,68595.79 2470.06,68595.52 2468.40,68595.23 2466.19,68594.30"/>
    </edge>
    <edge id=":1110673464_0" function="internal">
        <lane id=":1110673464_0_0" index="0" allow="private emergency authority army vip passenger hov taxi bus coach delivery truck trailer motorcycle evehicle custom1 custom2" speed="22.22" length="9.15" shape="3885.58,71194.11 3882.89,71193.86 3881.04,71193.95 3879.18,71194.24 3876.48,71194.58"/>
    </edge>
    <edge id=":1110673464_1" function="internal">
        <lane id=":1110673464_1_0" index="0" allow="private emergency authority army vip passenger hov taxi bus coach delivery truck trailer motorcycle evehicle custom1 custom2" speed="22.22" length="9.46" shape="3886.02,71190.94 3883.23,71190.78 3881.30,71191.01 3879.36,71191.23 3876.57,71191.05"/>
        <lane id=":1110673464_1_1" index="1" allow="private emergency authority army vip passenger hov taxi bus coach delivery truck trailer motorcycle evehicle custom1 custom2" speed="22.22" length="9.46" shape="3886.47,71187.78 3883.68,71187.61 3881.75,71187.84 3879.82,71188.06 3877.04,71187.88"/>
        <lane id=":1110673464_1_2" index="2" allow="private emergency authority army vip passenger hov taxi bus coach delivery truck trailer motorcycle evehicle custom1 custom2" speed="22.22" length="9.46" shape="3886.91,71184.61 3884.13,71184.44 3882.21,71184.67 3880.28,71184.90 3877.51,71184.72"/>
    </edge>
    <edge id=":1110673494_0" function="internal">
        <lane id=":1110673494_0_0" index="0" allow="private emergency authority army vip passenger hov taxi bus coach delivery truck trailer motorcycle evehicle custom1 custom2" speed="13.32" length="9.94" shape="4237.67,65521.11 4234.79,65521.00 4232.84,65521.45 4230.97,65522.40 4228.37,65523.82"/>
    </edge>
    <edge id=":1110673494_1" function="internal">
        <lane id=":1110673494_1_0" index="0" allow="private emergency authority army vip passenger hov taxi bus coach delivery truck trailer motorcycle evehicle custom1 custom2" speed="22.22" length="9.82" shape="4237.67,65521.11 4227.93,65519.82"/>
    </edge>
    <edge id=":1110673517_0" function="internal">
        <lane id=":1110673517_0_0" index="0" allow="private emergency authority army vip passenger hov taxi bus coach delivery truck trailer motorcycle evehicle custom1 custom2" speed="22.22" length="6.98" shape="3413.30,71097.82 3415.35,71097.81 3416.76,71097.44 3418.17,71097.13 3420.20,71097.27"/>
    </edge>
    <edge id=":1110673534_0" function="internal">
        <lane id=":1110673534_0_0" index="0" allow="private emergency authority army vip passenger hov taxi bus coach delivery truck trailer motorcycle evehicle custom1 custom2" speed="15.28" length="10.51" shape="3737.17,71101.90 3737.44,71098.79 3737.25,71096.62 3736.80,71094.49 3736.28,71091.50"/>
    </edge>
    <edge id=":1110673534_1" function="internal">
        <lane id=":1110673534_1_0" index="0" disallow="pedestrian bicycle tram rail_urban rail rail_electric rail_fast ship" speed="16.66" length="10.97" shape="3740.34,71102.35 3740.49,71099.14 3740.13,71096.92 3739.74,71094.70 3739.83,71091.48"/>
        <lane id=":1110673534_1_1" index="1" disallow="pedestrian bicycle tram rail_urban rail rail_electric rail_fast ship" speed="16.66" length="10.97" shape="3743.51,71102.80 3743.67,71099.57 3743.30,71097.34 3742.92,71095.10 3743.01,71091.86"/>
    </edge>
    <edge id=":1110673549_0" function="internal">
        <lane id=":1110673549_0_0" index="0" allow="private emergency authority army vip passenger hov taxi bus coach delivery truck trailer motorcycle evehicle custom1 custom2" speed="22.22" length="11.05" shape="3229.42,71073.16 3232.63,71073.93 3234.98,71074.04 3237.28,71073.85 3240.37,71073.72"/>
    </edge>
    <edge id=":1110673549_1" function="internal">
        <lane id=":1110673549_1_0" index="0" allow="private emergency authority army vip passenger hov taxi bus coach delivery truck trailer motorcycle evehicle custom1 custom2" speed="22.22" length="11.62" shape="3228.47,71076.22 3231.79,71076.88 3234.16,71076.80 3236.54,71076.69 3239.88,71077.25"/>
        <lane id=":1110673549_1_1" index="1" allow="private emergency authority army vip passenger hov taxi bus coach delivery truck trailer motorcycle evehicle custom1 custom2" speed="22.22" length="11.62" shape="3227.53,71079.28 3230.87,71079.95 3233.26,71079.87 3235.66,71079.76 3239.03,71080.34"/>
        <lane id=":1110673549_1_2" index="2" allow="private emergency authority army vip passenger hov taxi bus coach delivery truck trailer motorcycle evehicle custom1 custom2" speed="22.22" length="11.62" shape="3226.58,71082.34 3229.95,71083.01 3232.36,71082.94 3234.78,71082.84 3238.18,71083.42"/>
    </edge>
    <edge id=":1110673561_0" function="internal">
        <lane id=":1110673561_0_0" index="0" allow="private emergency authority army vip passenger hov taxi bus coach delivery truck trailer motorcycle evehicle custom1 custom2" speed="22.22" length="11.73" shape="3939.99,71175.53 3942.87,71176.77 3945.09,71177.82 3947.52,71178.67 3951.02,71179.30"/>
    </edge>
    <edge id=":1110673561_1" function="internal">
        <lane id=":1110673561_1_0" index="0" allow="private emergency authority army vip passenger hov taxi bus coach delivery truck trailer motorcycle evehicle custom1 custom2" speed="22.22" length="12.18" shape="3939.12,71178.94 3942.60,71179.74 3944.88,71180.75 3947.16,71181.74 3950.65,71182.47"/>
        <lane id=":1110673561_1_1" index="1" allow="private emergency authority army vip passenger hov taxi bus coach delivery truck trailer motorcycle evehicle custom1 custom2" speed="22.22" length="12.18" shape="3938.68,71182.11 3942.18,71182.91 3944.47,71183.92 3946.77,71184.91 3950.28,71185.65"/>
        <lane id=":1110673561_1_2" index="2" allow="private emergency authority army vip passenger hov taxi bus coach delivery truck trailer motorcycle evehicle custom1 custom2" speed="22.22" length="12.18" shape="3938.25,71185.28 3941.76,71186.08 3944.07,71187.10 3946.38,71188.09 3949.90,71188.83"/>
    </edge>
    <edge id=":1110673562_0" function="internal">
        <lane id=":1110673562_0_0" index="0" allow="private emergency authority army vip passenger hov taxi bus coach delivery truck trailer motorcycle evehicle custom1 custom2" speed="22.22" length="42.06" shape="3661.99,71300.55 3656.58,71295.69 3647.44,71288.10 3637.56,71279.92 3629.97,71273.28"/>
    </edge>
    <edge id=":1110673562_1" function="internal">
        <lane id=":1110673562_1_0" index="0" allow="private emergency authority army vip passenger hov taxi bus coach delivery truck trailer motorcycle evehicle custom1 custom2" speed="22.22" length="41.86" shape="3664.51,71297.35 3656.68,71292.13 3646.90,71285.74 3637.28,71279.13 3629.97,71273.28"/>
        <lane id=":1110673562_1_1" index="1" allow="private emergency authority army vip passenger hov taxi bus coach delivery truck trailer motorcycle evehicle custom1 custom2" speed="22.22" length="41.86" shape="3666.29,71294.69 3658.52,71289.52 3648.88,71283.24 3639.41,71276.75 3632.16,71270.95"/>
    </edge>
    <edge id=":1110673581_0" function="internal">
        <lane id=":1110673581_0_0" index="0" allow="private emergency authority army vip passenger hov taxi bus coach delivery truck trailer motorcycle evehicle custom1 custom2" speed="16.03" length="15.64" shape="4189.69,65518.30 4186.57,65516.10 4182.98,65514.42 4179.17,65513.25 4175.37,65512.57"/>
    </edge>
    <edge id=":1110673581_1" function="internal">
        <lane id=":1110673581_1_0" index="0" allow="private emergency authority army vip passenger hov taxi bus coach delivery truck trailer motorcycle evehicle custom1 custom2" speed="22.22" length="15.54" shape="4190.76,65514.67 4175.37,65512.57"/>
    </edge>
    <edge id=":1110673630_0" function="internal">
        <lane id=":1110673630_0_0" index="0" allow="private emergency authority army vip passenger hov taxi bus coach delivery truck trailer motorcycle evehicle custom1 custom2" speed="22.22" length="37.11" shape="3420.39,71097.31 3427.53,71098.22 3438.83,71099.27 3450.14,71100.22 3457.33,71100.83"/>
    </edge>
    <edge id=":1110673630_1" function="internal">
        <lane id=":1110673630_1_0" index="0" allow="private emergency authority army vip passenger hov taxi bus coach delivery truck trailer motorcycle evehicle custom1 custom2" speed="22.22" length="37.11" shape="3420.39,71097.31 3456.87,71104.13"/>
    </edge>
    <edge id=":1110673650_0" function="internal">
        <lane id=":1110673650_0_0" index="0" disallow="pedestrian bicycle tram rail_urban rail rail_electric rail_fast ship" speed="19.44" length="0.30" shape="3725.98,71179.51 3726.02,71179.19"/>
        <lane id=":1110673650_0_1" index="1" disallow="pedestrian bicycle tram rail_urban rail rail_electric rail_fast ship" speed="19.44" length="0.30" shape="3729.15,71179.95 3729.19,71179.65"/>
        <lane id=":1110673650_0_2" index="2" disallow="pedestrian bicycle tram rail_urban rail rail_electric rail_fast ship" speed="19.44" length="0.30" shape="3732.32,71180.38 3732.36,71180.11"/>
    </edge>
    <edge id=":1110673663_0" function="internal">
        <lane id=":1110673663_0_0" index="0" allow="private emergency authority army vip passenger hov taxi bus coach delivery truck trailer motorcycle evehicle custom1 custom2" speed="18.05" length="14.19" shape="3724.03,70995.11 3726.23,70997.96 3728.63,71000.47 3731.16,71002.86 3733.78,71005.38"/>
    </edge>
    <edge id=":1110673663_1" function="internal">
        <lane id=":1110673663_1_0" index="0" disallow="pedestrian bicycle tram rail_urban rail rail_electric rail_fast ship" speed="16.66" length="14.19" shape="3724.03,70995.11 3725.94,70998.18 3727.62,71001.22 3729.21,71004.30 3730.89,71007.52"/>
    </edge>
    <edge id=":1110673666_0" function="internal">
        <lane id=":1110673666_0_0" index="0" disallow="pedestrian bicycle tram rail_urban rail rail_electric rail_fast ship" speed="13.89" length="7.24" shape="3667.26,70926.74 3666.50,70924.74 3666.10,70923.32 3665.82,70921.87 3665.37,70919.77"/>
    </edge>
    <edge id=":1110673666_1" function="internal">
        <lane id=":1110673666_1_0" index="0" allow="private emergency authority army vip passenger hov taxi bus coach delivery truck trailer motorcycle evehicle custom1 custom2" speed="18.05" length="4.46" shape="3662.51,70924.91 3662.59,70923.59 3662.61,70922.68 3662.52,70921.78 3662.26,70920.49"/>
    </edge>
    <edge id=":1110673670_0" function="internal">
        <lane id=":1110673670_0_0" index="0" allow="private emergency authority army vip passenger hov taxi bus coach delivery truck trailer motorcycle evehicle custom1 custom2" speed="22.22" length="8.19" shape="3369.48,71090.81 3371.88,71090.90 3373.53,71090.57 3375.18,71090.22 3377.58,71090.26"/>
        <lane id=":1110673670_0_1" index="1" allow="private emergency authority army vip passenger hov taxi bus coach delivery truck trailer motorcycle evehicle custom1 custom2" speed="22.22" length="8.19" shape="3369.48,71090.81 3371.82,71091.39 3373.33,71092.16 3374.85,71092.90 3377.20,71093.44"/>
    </edge>
    <edge id=":1110673725_0" function="internal">
        <lane id=":1110673725_0_0" index="0" allow="private emergency authority army vip passenger hov taxi bus coach delivery truck trailer motorcycle evehicle custom1 custom2" speed="22.22" length="0.32" shape="4129.14,65507.17 4129.04,65507.16 4128.98,65507.15 4128.92,65507.13 4128.83,65507.10"/>
    </edge>
    <edge id=":1112072631_0" function="internal">
        <lane id=":1112072631_0_0" index="0" allow="private emergency authority army vip passenger hov taxi bus coach delivery truck trailer motorcycle evehicle custom1 custom2" speed="30.83" length="24.03" shape="6283.58,66300.47 6281.55,66296.46 6278.95,66291.36 6275.48,66285.75 6270.84,66280.23"/>
    </edge>
    <edge id=":1112072631_1" function="internal">
        <lane id=":1112072631_1_0" index="0" allow="private emergency authority army vip passenger hov taxi bus coach delivery truck trailer motorcycle evehicle custom1 custom2" speed="39.44" length="24.09" shape="6286.54,66298.35 6282.61,66293.09 6279.15,66288.89 6275.46,66284.89 6270.84,66280.23"/>
        <lane id=":1112072631_1_1" index="1" allow="private emergency authority army vip passenger hov taxi bus coach delivery truck trailer motorcycle evehicle custom1 custom2" speed="39.44" length="24.09" shape="6288.91,66296.17 6284.96,66290.90 6281.46,66286.67 6277.73,66282.63 6273.09,66277.95"/>
    </edge>
    <edge id=":1112072997_0" function="internal">
        <lane id=":1112072997_0_0" index="0" allow="private emergency authority army vip passenger hov taxi bus coach delivery truck trailer motorcycle evehicle custom1 custom2" speed="25.00" length="18.46" shape="6250.02,66233.28 6254.63,66237.21 6258.46,66239.99 6261.79,66242.13 6264.91,66244.14"/>
    </edge>
    <edge id=":1112072997_1" function="internal">
        <lane id=":1112072997_1_0" index="0" allow="private emergency authority army vip passenger hov taxi bus coach delivery truck trailer motorcycle evehicle custom1 custom2" speed="27.78" length="18.45" shape="6250.02,66233.28 6253.92,66237.15 6256.33,66240.06 6258.64,66243.07 6262.26,66247.23"/>
        <lane id=":1112072997_1_1" index="1" allow="private emergency authority army vip passenger hov taxi bus coach delivery truck trailer motorcycle evehicle custom1 custom2" speed="27.78" length="18.45" shape="6247.85,66235.64 6251.71,66239.46 6254.08,66242.33 6256.35,66245.30 6259.91,66249.41"/>
    </edge>
    <edge id=":1112073113_0" function="internal">