<?xml version="1.0" encoding="UTF-8"?>

<!-- generated on 2022-11-21 12:16:34.952643 by randomTrips.py v1_15_0+0002-e6790248698
<configuration>
    <end value="50"/>
    <length value="True"/>
    <net-file value="porto_clean.net.xml"/>
    <route-file value="porto.rou.xml"/>
</configuration>
-->

<routes xmlns:xsi="http://www.w3.org/2001/XMLSchema-instance" xsi:noNamespaceSchemaLocation="http://sumo.dlr.de/xsd/routes_file.xsd">
    <trip id="0" depart="0.00" from="479198380" to="106586052"/>
    <trip id="1" depart="1.00" from="34884995" to="29036542"/>
    <trip id="2" depart="2.00" from="497925444" to="480146192"/>
    <trip id="3" depart="3.00" from="95367763#0" to="13797865#1"/>
    <trip id="4" depart="4.00" from="4256507" to="1067636645"/>
    <trip id="5" depart="5.00" from="29036539" to="461172813"/>
    <trip id="6" depart="6.00" from="106586052" to="28618310"/>
    <trip id="7" depart="7.00" from="479365561" to="474423808#1"/>
    <trip id="8" depart="8.00" from="29036539" to="478886779"/>
    <trip id="9" depart="9.00" from="915252792" to="105482346"/>
    <trip id="10" depart="10.00" from="915252792" to="483715765"/>
    <trip id="11" depart="11.00" from="35539503" to="140047506"/>
    <trip id="12" depart="12.00" from="95841144" to="35446606"/>
    <trip id="13" depart="13.00" from="13530808" to="13797988#1"/>
    <trip id="14" depart="14.00" from="95117810" to="479127852"/>
    <trip id="15" depart="15.00" from="915252792" to="497924851"/>
    <trip id="16" depart="16.00" from="461173094" to="97721305#1"/>
    <trip id="17" depart="17.00" from="398030859" to="474423810"/>
    <trip id="18" depart="18.00" from="95117787#2" to="479187301#0"/>
    <trip id="19" depart="19.00" from="95362522" to="478886777"/>
    <trip id="20" depart="20.00" from="483715765" to="12543115#1"/>
    <trip id="21" depart="21.00" from="29036551" to="35006698"/>
    <trip id="22" depart="22.00" from="12543263" to="308678914"/>
    <trip id="23" depart="23.00" from="13797903#1" to="34884995"/>
    <trip id="24" depart="24.00" from="479192142" to="37856708#0"/>
    <trip id="25" depart="25.00" from="394028171" to="29036509"/>
    <trip id="26" depart="26.00" from="34711004#1" to="95841106"/>
    <trip id="27" depart="27.00" from="479198391" to="479165072"/>
    <trip id="28" depart="28.00" from="140047506" to="497153702"/>
    <trip id="29" depart="29.00" from="139465323" to="398030859"/>
    <trip id="30" depart="30.00" from="98835800" to="479198380"/>
    <trip id="31" depart="31.00" from="474423812" to="480148045#0"/>
    <trip id="32" depart="32.00" from="95117802" to="712274398#1"/>
    <trip id="33" depart="33.00" from="29036551" to="1096803816"/>
    <trip id="34" depart="34.00" from="35384499#1" to="34711004#1"/>
    <trip id="35" depart="35.00" from="29036509" to="95841106"/>
    <trip id="36" depart="36.00" from="95367752#0" to="35047582"/>
    <trip id="37" depart="37.00" from="479365563" to="405899851"/>
    <trip id="38" depart="38.00" from="95374583#1" to="453274470"/>
    <trip id="39" depart="39.00" from="34711004#1" to="331868361#0"/>
    <trip id="40" depart="40.00" from="478882416" to="345566834"/>
    <trip id="41" depart="41.00" from="478886777" to="95367763#1"/>
    <trip id="42" depart="42.00" from="405899851" to="29036539"/>
    <trip id="43" depart="43.00" from="99185171" to="461172813"/>
    <trip id="44" depart="44.00" from="12543749" to="12543115#1"/>
    <trip id="45" depart="45.00" from="13798242" to="479192140"/>
    <trip id="46" depart="46.00" from="8137307" to="4259341"/>
    <trip id="47" depart="47.00" from="12543140" to="398030859"/>
    <trip id="48" depart="48.00" from="99185139" to="461173094"/>
    <trip id="49" depart="49.00" from="95984945" to="95117810"/>
</routes>
