<?xml version="1.0" encoding="UTF-8"?>

<!-- generated on 2022-12-06 18:09:37.063874 by randomTrips.py v1_15_0+0002-e6790248698
<configuration>
    <end value="50"/>
    <length value="True"/>
    <net-file value="data/porto_clean.net.xml"/>
    <route-file value="data/porto.rou.xml"/>
</configuration>
-->

<routes xmlns:xsi="http://www.w3.org/2001/XMLSchema-instance" xsi:noNamespaceSchemaLocation="http://sumo.dlr.de/xsd/routes_file.xsd">
    <trip id="0" depart="0.00" from="479365561" to="106441015"/>
    <trip id="1" depart="1.00" from="35006698" to="30911274"/>
    <trip id="2" depart="2.00" from="497924851" to="480148041"/>
    <trip id="3" depart="3.00" from="95367763#1" to="13798242"/>
    <trip id="4" depart="4.00" from="447313062" to="1096803816"/>
    <trip id="5" depart="5.00" from="29036543" to="461173094"/>
    <trip id="6" depart="6.00" from="106441015" to="29036536"/>
    <trip id="7" depart="7.00" from="479365565" to="474423812"/>
    <trip id="8" depart="8.00" from="29036544" to="479127848"/>
    <trip id="9" depart="9.00" from="915252792" to="105482346"/>
    <trip id="10" depart="10.00" from="915252791" to="484778540"/>
    <trip id="11" depart="11.00" from="35539786#2" to="24790586"/>
    <trip id="12" depart="12.00" from="95841148" to="35539786#2"/>
    <trip id="13" depart="13.00" from="13797903#1" to="139449001"/>
    <trip id="14" depart="14.00" from="95117799" to="479178723"/>
    <trip id="15" depart="15.00" from="915252791" to="497924851"/>
    <trip id="16" depart="16.00" from="474423807" to="97721315"/>
    <trip id="17" depart="17.00" from="405899851" to="478882416"/>
    <trip id="18" depart="18.00" from="95098677#2" to="479192134"/>
    <trip id="19" depart="19.00" from="95117810" to="478886778"/>
    <trip id="20" depart="20.00" from="484986691" to="12543115#3"/>
    <trip id="21" depart="21.00" from="304693637" to="35047582"/>
    <trip id="22" depart="22.00" from="12543642" to="332930861"/>
    <trip id="23" depart="23.00" from="13798688#1" to="35006698"/>
    <trip id="24" depart="24.00" from="479192145" to="398030859"/>
    <trip id="25" depart="25.00" from="398030859" to="29036544"/>
    <trip id="26" depart="26.00" from="35006697" to="95841106"/>
    <trip id="27" depart="27.00" from="479365563" to="479181462"/>
    <trip id="28" depart="28.00" from="173072184" to="497153702"/>
    <trip id="29" depart="29.00" from="140047503" to="405899851"/>
    <trip id="30" depart="30.00" from="98835987" to="479365563"/>
    <trip id="31" depart="31.00" from="478882414" to="480149866"/>
    <trip id="32" depart="32.00" from="95117790" to="712274397#1"/>
    <trip id="33" depart="33.00" from="304693637" to="12297710#2"/>
    <trip id="34" depart="34.00" from="35384689" to="35006697"/>
    <trip id="35" depart="35.00" from="29036532" to="95841106"/>
    <trip id="36" depart="36.00" from="95127165#1" to="35384689"/>
    <trip id="37" depart="37.00" from="479365568" to="415566516"/>
    <trip id="38" depart="38.00" from="95374587" to="453955770"/>
    <trip id="39" depart="39.00" from="35006697" to="34704921"/>
    <trip id="40" depart="40.00" from="478882416" to="34884995"/>
    <trip id="41" depart="41.00" from="478886777" to="95367763#1"/>
    <trip id="42" depart="42.00" from="4256484" to="30911261#0"/>
    <trip id="43" depart="43.00" from="99185171" to="461173094"/>
    <trip id="44" depart="44.00" from="13797903#1" to="12543140"/>
    <trip id="45" depart="45.00" from="139449001" to="479192143"/>
    <trip id="46" depart="46.00" from="712274398#1" to="447313062"/>
    <trip id="47" depart="47.00" from="12543151" to="405899851"/>
    <trip id="48" depart="48.00" from="99185171" to="474423808#1"/>
    <trip id="49" depart="49.00" from="97721304#0" to="95117810"/>
</routes>
