<additional>
  <inductionLoop id="121725_20" lane="95367752#0_0" pos="121.94" freq="300" file="simulation.out.xml"/>
  <inductionLoop id="121725_21" lane="95367752#0_1" pos="121.94" freq="300" file="simulation.out.xml"/>
  <inductionLoop id="121725_30" lane="839842702_0" pos="1069" freq="300" file="simulation.out.xml"/>
  <inductionLoop id="121725_31" lane="839842702_1" pos="1069" freq="300" file="simulation.out.xml"/>

  <inductionLoop id="121726_00" lane="460986039_0" pos="111.09" freq="300" file="simulation.out.xml"/>
  <inductionLoop id="121726_01" lane="460986039_1" pos="111.09" freq="300" file="simulation.out.xml"/>
  <inductionLoop id="121726_02" lane="460986039_2" pos="111.09" freq="300" file="simulation.out.xml"/>
  <inductionLoop id="121726_10" lane="405899851_0" pos="69.2" freq="300" file="simulation.out.xml"/>
  <inductionLoop id="121726_11" lane="405899851_1" pos="69.2" freq="300" file="simulation.out.xml"/>
  <inductionLoop id="121726_12" lane="405899851_2" pos="69.2" freq="300" file="simulation.out.xml"/>

  <inductionLoop id="121727_00" lane="95367763#1_0" pos="142.24" freq="300" file="simulation.out.xml"/>
  <inductionLoop id="121727_01" lane="95367763#1_1" pos="142.24" freq="300" file="simulation.out.xml"/>
  <inductionLoop id="121727_02" lane="95367763#1_2" pos="142.24" freq="300" file="simulation.out.xml"/>
  <inductionLoop id="121727_10" lane="460986072_0" pos="177.18" freq="300" file="simulation.out.xml"/>
  <inductionLoop id="121727_11" lane="460986072_1" pos="177.18" freq="300" file="simulation.out.xml"/>
  <inductionLoop id="121727_12" lane="460986072_2" pos="177.18" freq="300" file="simulation.out.xml"/>

  <inductionLoop id="121731_00" lane="508107809_0" pos="115" freq="300" file="simulation.out.xml"/>
  <inductionLoop id="121731_01" lane="508107809_1" pos="115" freq="300" file="simulation.out.xml"/>
  <inductionLoop id="121731_02" lane="508107809_2" pos="115" freq="300" file="simulation.out.xml"/>
  <inductionLoop id="121731_03" lane="508107809_3" pos="115" freq="300" file="simulation.out.xml"/>
  <inductionLoop id="121731_04" lane="508107809_4" pos="115" freq="300" file="simulation.out.xml"/>
  <inductionLoop id="121731_10" lane="35384499#0_0" pos="4.22" freq="300" file="simulation.out.xml"/>
  <inductionLoop id="121731_11" lane="35384499#0_1" pos="4.22" freq="300" file="simulation.out.xml"/>
  <inductionLoop id="121731_12" lane="35384499#0_2" pos="4.22" freq="300" file="simulation.out.xml"/>
  <inductionLoop id="121731_13" lane="35384499#0_3" pos="4.22" freq="300" file="simulation.out.xml"/>

  <inductionLoop id="121732_00" lane="480146192_0" pos="27.72" freq="300" file="simulation.out.xml"/>
  <inductionLoop id="121732_01" lane="480146192_1" pos="27.72" freq="300" file="simulation.out.xml"/>
  <inductionLoop id="121732_02" lane="480146192_2" pos="27.72" freq="300" file="simulation.out.xml"/>
  <inductionLoop id="121732_03" lane="480146192_3" pos="27.72" freq="300" file="simulation.out.xml"/>
  <inductionLoop id="121732_10" lane="478886770_0" pos="51.30" freq="300" file="simulation.out.xml"/>
  <inductionLoop id="121732_11" lane="478886770_1" pos="51.30" freq="300" file="simulation.out.xml"/>
  <inductionLoop id="121732_12" lane="478886770_2" pos="51.30" freq="300" file="simulation.out.xml"/>
  <inductionLoop id="121732_13" lane="478886770_3" pos="51.30" freq="300" file="simulation.out.xml"/>

  <inductionLoop id="121733_00" lane="478886777_0" pos="243" freq="300" file="simulation.out.xml"/>
  <inductionLoop id="121733_01" lane="478886777_1" pos="243" freq="300" file="simulation.out.xml"/>
  <inductionLoop id="121733_02" lane="478886777_2" pos="243" freq="300" file="simulation.out.xml"/>
  <inductionLoop id="121733_10" lane="478882419_0" pos="136.88" freq="300" file="simulation.out.xml"/>
  <inductionLoop id="121733_11" lane="478882419_1" pos="136.88" freq="300" file="simulation.out.xml"/>
  <inductionLoop id="121733_12" lane="478882419_2" pos="136.88" freq="300" file="simulation.out.xml"/>

  <inductionLoop id="121734_00" lane="478886779_0" pos="42" freq="300" file="simulation.out.xml"/>
  <inductionLoop id="121734_01" lane="478886779_1" pos="42" freq="300" file="simulation.out.xml"/>
  <inductionLoop id="121734_02" lane="478886779_2" pos="42" freq="300" file="simulation.out.xml"/>
  <inductionLoop id="121734_03" lane="478886779_3" pos="42" freq="300" file="simulation.out.xml"/>
  <inductionLoop id="121734_04" lane="478886779_4" pos="42" freq="300" file="simulation.out.xml"/>
  <inductionLoop id="121734_10" lane="29036509_0" pos="128.37" freq="300" file="simulation.out.xml"/>
  <inductionLoop id="121734_11" lane="29036509_1" pos="128.37" freq="300" file="simulation.out.xml"/>
  <inductionLoop id="121734_12" lane="29036509_2" pos="128.37" freq="300" file="simulation.out.xml"/>
  <inductionLoop id="121734_13" lane="13798158_0" pos="131" freq="300" file="simulation.out.xml"/>

  <inductionLoop id="121735_00" lane="479365563_0" pos="13" freq="300" file="simulation.out.xml"/>
  <inductionLoop id="121735_01" lane="479365563_1" pos="13" freq="300" file="simulation.out.xml"/>
  <inductionLoop id="121735_02" lane="479365563_2" pos="13" freq="300" file="simulation.out.xml"/>
  <inductionLoop id="121735_03" lane="13798242_0" pos="18.5" freq="300" file="simulation.out.xml"/>
  <inductionLoop id="121735_10" lane="29036509_0" pos="548" freq="300" file="simulation.out.xml"/>
  <inductionLoop id="121735_11" lane="29036509_1" pos="548" freq="300" file="simulation.out.xml"/>
  <inductionLoop id="121735_12" lane="29036509_2" pos="548" freq="300" file="simulation.out.xml"/>
  <inductionLoop id="121735_13" lane="480084928_0" pos="11" freq="300" file="simulation.out.xml"/>

  <inductionLoop id="121736_00" lane="479187305_0" pos="31" freq="300" file="simulation.out.xml"/>
  <inductionLoop id="121736_01" lane="479187305_1" pos="31" freq="300" file="simulation.out.xml"/>
  <inductionLoop id="121736_02" lane="479187305_2" pos="31" freq="300" file="simulation.out.xml"/>
  <inductionLoop id="121736_10" lane="35047581_0" pos="404.08" freq="300" file="simulation.out.xml"/>
  <inductionLoop id="121736_11" lane="35047581_1" pos="404.08" freq="300" file="simulation.out.xml"/>
  <inductionLoop id="121736_12" lane="35047581_2" pos="404.08" freq="300" file="simulation.out.xml"/>

  <inductionLoop id="121738_00" lane="95984874_0" pos="90.16" freq="300" file="simulation.out.xml"/>
  <inductionLoop id="121738_01" lane="95984874_1" pos="90.16" freq="300" file="simulation.out.xml"/>
  <inductionLoop id="121738_10" lane="95984878_0" pos="21" freq="300" file="simulation.out.xml"/>
  <inductionLoop id="121738_11" lane="95984878_1" pos="21" freq="300" file="simulation.out.xml"/>

  <inductionLoop id="121741_00" lane="13703054_0" pos="72.35" freq="300" file="simulation.out.xml"/>
  <inductionLoop id="121741_01" lane="13703054_1" pos="72.35" freq="300" file="simulation.out.xml"/>
  <inductionLoop id="121741_02" lane="13703054_2" pos="72.35" freq="300" file="simulation.out.xml"/>
  <inductionLoop id="121741_10" lane="453955770_0" pos="11.98" freq="300" file="simulation.out.xml"/>
  <inductionLoop id="121741_11" lane="453955770_1" pos="11.98" freq="300" file="simulation.out.xml"/>
  <inductionLoop id="121741_12" lane="453955770_2" pos="11.98" freq="300" file="simulation.out.xml"/>

  <inductionLoop id="121742_01" lane="479181126_0" pos="144.63" freq="300" file="simulation.out.xml"/>
  <inductionLoop id="121742_02" lane="479181126_1" pos="144.63" freq="300" file="simulation.out.xml"/>
  <inductionLoop id="121742_03" lane="479181126_2" pos="144.63" freq="300" file="simulation.out.xml"/>
  <inductionLoop id="121742_10" lane="479181462_0" pos="18.5" freq="300" file="simulation.out.xml"/>
  <inductionLoop id="121742_11" lane="479181462_1" pos="18.5" freq="300" file="simulation.out.xml"/>
  <inductionLoop id="121743_12" lane="479181462_2" pos="18.5" freq="300" file="simulation.out.xml"/>
  <inductionLoop id="121743_13" lane="13713923#3_0" pos="59.5" freq="300" file="simulation.out.xml"/>

  <inductionLoop id="121745_20" lane="453274489_0" pos="27.3" freq="300" file="simulation.out.xml"/>
  <inductionLoop id="121745_21" lane="453274489_1" pos="27.3" freq="300" file="simulation.out.xml"/>
  <inductionLoop id="121745_22" lane="453274489_2" pos="27.3" freq="300" file="simulation.out.xml"/>
  <inductionLoop id="121745_30" lane="453275800_0" pos="4.65" freq="300" file="simulation.out.xml"/>
  <inductionLoop id="121745_31" lane="453275800_1" pos="4.65" freq="300" file="simulation.out.xml"/>
  <inductionLoop id="121745_32" lane="453275800_2" pos="4.65" freq="300" file="simulation.out.xml"/>
  <inductionLoop id="121745_33" lane="479198376_0" pos="6.05" freq="300" file="simulation.out.xml"/>

  <inductionLoop id="121746_0" lane="95127165#5_0" pos="5.38" freq="300" file="simulation.out.xml"/>

  <inductionLoop id="121754_00" lane="95117794_0" pos="220" freq="300" file="simulation.out.xml"/>
  <inductionLoop id="121754_01" lane="95117794_1" pos="220" freq="300" file="simulation.out.xml"/>
  <inductionLoop id="121754_10" lane="95117810_0" pos="48.58" freq="300" file="simulation.out.xml"/>
  <inductionLoop id="121754_11" lane="95117810_1" pos="48.58" freq="300" file="simulation.out.xml"/>

  <inductionLoop id="121755_00" lane="95098680_0" pos="19.98" freq="300" file="simulation.out.xml"/>
  <inductionLoop id="121755_01" lane="95098680_1" pos="19.98" freq="300" file="simulation.out.xml"/>
  <inductionLoop id="121755_10" lane="95117804_0" pos="295.17" freq="300" file="simulation.out.xml"/>
  <inductionLoop id="121755_11" lane="95117804_1" pos="295.17" freq="300" file="simulation.out.xml"/>

  <inductionLoop id="121756_00" lane="95374596_0" pos="188" freq="300" file="simulation.out.xml"/>
  <inductionLoop id="121756_01" lane="95374596_1" pos="188" freq="300" file="simulation.out.xml"/>
  <inductionLoop id="121756_10" lane="95374603_0" pos="51.52" freq="300" file="simulation.out.xml"/>
  <inductionLoop id="121756_11" lane="95374603_1" pos="51.52" freq="300" file="simulation.out.xml"/>
</additional>
