<configuration> 
    <input> 
        <net-file value="./porto_clean.net.xml"/> 
        <route-files value="./porto.trips.xml"/>
    </input>

    <output>
        <output-file value="./od_route_file.odtrips.rou.xml"/>
    </output> 
</configuration> 