<?xml version="1.0" encoding="UTF-8"?>

<!-- generated on 2022-12-30 16:58:03 by Eclipse SUMO netedit Version 1.15.0
<configuration xmlns:xsi="http://www.w3.org/2001/XMLSchema-instance" xsi:noNamespaceSchemaLocation="http://sumo.dlr.de/xsd/netconvertConfiguration.xsd">

    <input>
        <sumo-net-file value="C:\Users\Paulinho\Desktop\feup-ms\data\porto_clean.net.xml"/>
    </input>

    <output>
        <output-file value="C:\Users\Paulinho\Desktop\feup-ms\data\porto_clean.net.xml"/>
    </output>

    <processing>
        <geometry.min-radius.fix.railways value="false"/>
        <geometry.max-grade.fix value="false"/>
        <offset.disable-normalization value="true"/>
        <lefthand value="0"/>
    </processing>

    <junctions>
        <no-turnarounds value="true"/>
        <junctions.corner-detail value="5"/>
        <junctions.limit-turn-speed value="5.50"/>
        <rectangular-lane-cut value="0"/>
    </junctions>

    <pedestrian>
        <walkingareas value="0"/>
    </pedestrian>

</configuration>
-->

<net version="1.9" junctionCornerDetail="5" limitTurnSpeed="5.50" xmlns:xsi="http://www.w3.org/2001/XMLSchema-instance" xsi:noNamespaceSchemaLocation="http://sumo.dlr.de/xsd/net_file.xsd">

    <location netOffset="-525736.75,-4545559.71" convBoundary="2781.28,4220.30,10750.53,14806.54" origBoundary="-8.840639,37.942141,-8.236192,42.037923" projParameter="+proj=utm +zone=29 +ellps=WGS84 +datum=WGS84 +units=m +no_defs"/>

    <type id="highway.bridleway" priority="1" numLanes="1" speed="2.78" allow="pedestrian" oneway="1" width="2.00"/>
    <type id="highway.bus_guideway" priority="1" numLanes="1" speed="27.78" allow="bus" oneway="1"/>
    <type id="highway.cycleway" priority="1" numLanes="1" speed="5.56" allow="bicycle" oneway="0" width="1.00"/>
    <type id="highway.footway" priority="1" numLanes="1" speed="2.78" allow="pedestrian" oneway="1" width="2.00"/>
    <type id="highway.ford" priority="1" numLanes="1" speed="2.78" allow="army" oneway="0"/>
    <type id="highway.living_street" priority="2" numLanes="1" speed="2.78" disallow="tram rail_urban rail rail_electric rail_fast ship" oneway="0"/>
    <type id="highway.motorway" priority="14" numLanes="2" speed="39.44" allow="private emergency authority army vip passenger hov taxi bus coach delivery truck trailer motorcycle evehicle custom1 custom2" oneway="1"/>
    <type id="highway.motorway_link" priority="9" numLanes="1" speed="22.22" allow="private emergency authority army vip passenger hov taxi bus coach delivery truck trailer motorcycle evehicle custom1 custom2" oneway="1"/>
    <type id="highway.path" priority="1" numLanes="1" speed="5.56" allow="pedestrian bicycle" oneway="0" width="2.00"/>
    <type id="highway.pedestrian" priority="1" numLanes="1" speed="2.78" allow="pedestrian" oneway="1" width="2.00"/>
    <type id="highway.primary" priority="12" numLanes="2" speed="27.78" disallow="tram rail_urban rail rail_electric rail_fast ship" oneway="0"/>
    <type id="highway.primary_link" priority="7" numLanes="1" speed="22.22" disallow="tram rail_urban rail rail_electric rail_fast ship" oneway="0"/>
    <type id="highway.raceway" priority="15" numLanes="2" speed="83.33" allow="vip" oneway="0"/>
    <type id="highway.residential" priority="3" numLanes="1" speed="13.89" disallow="tram rail_urban rail rail_electric rail_fast ship" oneway="0"/>
    <type id="highway.secondary" priority="11" numLanes="1" speed="27.78" disallow="tram rail_urban rail rail_electric rail_fast ship" oneway="0"/>
    <type id="highway.secondary_link" priority="6" numLanes="1" speed="22.22" disallow="tram rail_urban rail rail_electric rail_fast ship" oneway="0"/>
    <type id="highway.service" priority="1" numLanes="1" speed="5.56" allow="pedestrian delivery bicycle" oneway="0"/>
    <type id="highway.stairs" priority="1" numLanes="1" speed="1.39" allow="pedestrian" oneway="1" width="2.00"/>
    <type id="highway.step" priority="1" numLanes="1" speed="1.39" allow="pedestrian" oneway="1" width="2.00"/>
    <type id="highway.steps" priority="1" numLanes="1" speed="1.39" allow="pedestrian" oneway="1" width="2.00"/>
    <type id="highway.tertiary" priority="10" numLanes="1" speed="22.22" disallow="tram rail_urban rail rail_electric rail_fast ship" oneway="0"/>
    <type id="highway.tertiary_link" priority="5" numLanes="1" speed="22.22" disallow="tram rail_urban rail rail_electric rail_fast ship" oneway="0"/>
    <type id="highway.track" priority="1" numLanes="1" speed="5.56" allow="pedestrian motorcycle moped bicycle" oneway="0"/>
    <type id="highway.trunk" priority="13" numLanes="2" speed="27.78" disallow="pedestrian bicycle tram rail_urban rail rail_electric rail_fast ship" oneway="0"/>
    <type id="highway.trunk_link" priority="8" numLanes="1" speed="22.22" disallow="pedestrian bicycle tram rail_urban rail rail_electric rail_fast ship" oneway="0"/>
    <type id="highway.unclassified" priority="4" numLanes="1" speed="13.89" disallow="tram rail_urban rail rail_electric rail_fast ship" oneway="0"/>
    <type id="highway.unsurfaced" priority="1" numLanes="1" speed="8.33" disallow="tram rail_urban rail rail_electric rail_fast ship" oneway="0"/>
    <type id="railway.highspeed" priority="21" numLanes="1" speed="69.44" allow="rail_fast" oneway="1"/>
    <type id="railway.light_rail" priority="19" numLanes="1" speed="27.78" allow="rail_urban" oneway="1"/>
    <type id="railway.preserved" priority="16" numLanes="1" speed="27.78" allow="rail" oneway="1"/>
    <type id="railway.rail" priority="20" numLanes="1" speed="44.44" allow="rail" oneway="1"/>
    <type id="railway.subway" priority="18" numLanes="1" speed="27.78" allow="rail_urban" oneway="1"/>
    <type id="railway.tram" priority="17" numLanes="1" speed="13.89" allow="tram" oneway="1"/>

    <edge id=":10019270299_0" function="internal">
        <lane id=":10019270299_0_0" index="0" allow="private emergency authority army vip passenger hov taxi bus coach delivery truck trailer motorcycle evehicle custom1 custom2" speed="25.00" length="0.10" shape="9727.61,8264.26 9727.61,8264.26"/>
        <lane id=":10019270299_0_1" index="1" allow="private emergency authority army vip passenger hov taxi bus coach delivery truck trailer motorcycle evehicle custom1 custom2" speed="25.00" length="0.10" shape="9725.13,8262.24 9725.13,8262.24"/>
    </edge>
    <edge id=":10065738784_0" function="internal">
        <lane id=":10065738784_0_0" index="0" allow="private emergency authority army vip passenger hov taxi bus coach delivery truck trailer motorcycle evehicle custom1 custom2" speed="30.83" length="8.15" shape="3454.03,12684.17 3455.46,12682.25 3456.15,12680.71 3456.85,12679.18 3458.33,12677.31"/>
    </edge>
    <edge id=":1103243234_0" function="internal">
        <lane id=":1103243234_0_0" index="0" allow="private emergency authority army vip passenger hov taxi bus coach delivery truck trailer motorcycle evehicle custom1 custom2" speed="39.44" length="0.26" shape="7439.13,7296.85 7438.86,7296.71"/>
        <lane id=":1103243234_0_1" index="1" allow="private emergency authority army vip passenger hov taxi bus coach delivery truck trailer motorcycle evehicle custom1 custom2" speed="39.44" length="0.26" shape="7440.53,7293.97 7440.33,7293.87"/>
    </edge>
    <edge id=":1103406299_0" function="internal">
        <lane id=":1103406299_0_0" index="0" allow="private emergency authority army vip passenger hov taxi bus coach delivery truck trailer motorcycle evehicle custom1 custom2" speed="22.22" length="0.10" shape="7289.47,7224.77 7289.47,7224.77"/>
    </edge>
    <edge id=":1103406302_0" function="internal">
        <lane id=":1103406302_0_0" index="0" allow="private emergency authority army vip passenger hov taxi bus coach delivery truck trailer motorcycle evehicle custom1 custom2" speed="23.61" length="0.32" shape="6613.11,6882.71 6613.25,6882.73 6613.34,6882.75 6613.44,6882.77 6613.58,6882.80"/>
        <lane id=":1103406302_0_1" index="1" allow="private emergency authority army vip passenger hov taxi bus coach delivery truck trailer motorcycle evehicle custom1 custom2" speed="23.61" length="0.32" shape="6612.66,6885.88 6612.70,6885.89 6612.74,6885.89 6612.77,6885.90 6612.81,6885.91"/>
    </edge>
    <edge id=":1103406307_0" function="internal">
        <lane id=":1103406307_0_0" index="0" allow="private emergency authority army vip passenger hov taxi bus coach delivery truck trailer motorcycle evehicle custom1 custom2" speed="22.22" length="21.48" shape="7012.62,7077.51 7009.60,7074.77 7006.02,7071.52 7001.50,7068.00 6995.65,7064.45"/>
    </edge>
    <edge id=":1103406307_1" function="internal">
        <lane id=":1103406307_1_0" index="0" allow="private emergency authority army vip passenger hov taxi bus coach delivery truck trailer motorcycle evehicle custom1 custom2" speed="22.22" length="21.30" shape="7014.69,7074.06 6995.65,7064.45"/>
        <lane id=":1103406307_1_1" index="1" allow="private emergency authority army vip passenger hov taxi bus coach delivery truck trailer motorcycle evehicle custom1 custom2" speed="22.22" length="21.30" shape="7016.14,7071.20 6997.14,7061.61"/>
    </edge>
    <edge id=":1103406316_0" function="internal">
        <lane id=":1103406316_0_0" index="0" allow="private emergency authority army vip passenger hov taxi bus coach delivery truck trailer motorcycle evehicle custom1 custom2" speed="22.22" length="16.53" shape="7006.89,7051.75 7011.73,7054.04 7015.57,7055.53 7018.92,7056.61 7022.29,7057.70"/>
    </edge>
    <edge id=":1103406316_1" function="internal">
        <lane id=":1103406316_1_0" index="0" allow="private emergency authority army vip passenger hov taxi bus coach delivery truck trailer motorcycle evehicle custom1 custom2" speed="22.22" length="16.54" shape="7006.89,7051.75 7011.16,7054.23 7013.84,7056.31 7016.44,7058.53 7020.47,7061.43"/>
        <lane id=":1103406316_1_1" index="1" allow="private emergency authority army vip passenger hov taxi bus coach delivery truck trailer motorcycle evehicle custom1 custom2" speed="22.22" length="16.54" shape="7005.43,7054.59 7009.61,7057.03 7012.23,7059.08 7014.77,7061.27 7018.72,7064.11"/>
    </edge>
    <edge id=":1103406320_0" function="internal">
        <lane id=":1103406320_0_0" index="0" allow="private emergency authority army vip passenger hov taxi bus coach delivery truck trailer motorcycle evehicle custom1 custom2" speed="18.02" length="11.07" shape="7199.03,7143.58 7200.60,7146.50 7202.05,7148.35 7203.80,7149.86 7206.24,7151.76"/>
    </edge>
    <edge id=":1103406320_1" function="internal">
        <lane id=":1103406320_1_0" index="0" disallow="tram rail_urban rail rail_electric rail_fast ship" speed="27.78" length="9.96" shape="7199.03,7143.58 7200.17,7146.42 7200.55,7148.49 7200.67,7150.65 7201.00,7153.73"/>
        <lane id=":1103406320_1_1" index="1" disallow="tram rail_urban rail rail_electric rail_fast ship" speed="27.78" length="9.96" shape="7196.14,7144.97 7197.17,7147.55 7197.48,7149.45 7197.55,7151.42 7197.84,7154.23"/>
    </edge>
    <edge id=":1103406328_0" function="internal">
        <lane id=":1103406328_0_0" index="0" allow="private emergency authority army vip passenger hov taxi bus coach delivery truck trailer motorcycle evehicle custom1 custom2" speed="16.64" length="10.74" shape="7145.60,7161.76 7144.28,7158.86 7143.02,7157.00 7141.41,7155.45 7139.06,7153.47"/>
    </edge>
    <edge id=":1103406328_1" function="internal">
        <lane id=":1103406328_1_0" index="0" disallow="tram rail_urban rail rail_electric rail_fast ship" speed="27.78" length="10.61" shape="7145.60,7161.76 7144.61,7158.66 7144.40,7156.42 7144.53,7154.11 7144.53,7150.79"/>
        <lane id=":1103406328_1_1" index="1" disallow="tram rail_urban rail rail_electric rail_fast ship" speed="27.78" length="10.61" shape="7148.57,7160.56 7147.69,7157.76 7147.55,7155.73 7147.71,7153.63 7147.73,7150.63"/>
    </edge>
    <edge id=":1103406346_0" function="internal">
        <lane id=":1103406346_0_0" index="0" disallow="pedestrian tram rail_urban rail rail_electric rail_fast ship" speed="20.84" length="16.00" shape="7188.32,7096.70 7189.82,7093.10 7191.39,7089.31 7192.88,7085.50 7194.12,7081.80"/>
    </edge>
    <edge id=":1103406346_1" function="internal">
        <lane id=":1103406346_1_0" index="0" disallow="pedestrian tram rail_urban rail rail_electric rail_fast ship" speed="27.78" length="16.00" shape="7191.75,7097.61 7192.20,7093.72 7192.65,7089.64 7193.25,7085.60 7194.12,7081.80"/>
    </edge>
    <edge id=":1103406350_0" function="internal">
        <lane id=":1103406350_0_0" index="0" allow="private emergency authority army vip passenger hov taxi bus coach delivery truck trailer motorcycle evehicle custom1 custom2" speed="25.00" length="0.28" shape="7979.23,7442.25 7979.49,7442.27"/>
        <lane id=":1103406350_0_1" index="1" allow="private emergency authority army vip passenger hov taxi bus coach delivery truck trailer motorcycle evehicle custom1 custom2" speed="25.00" length="0.28" shape="7979.06,7445.45 7979.38,7445.46"/>
    </edge>
    <edge id=":1103406367_0" function="internal">
        <lane id=":1103406367_0_0" index="0" allow="private emergency authority army vip passenger hov taxi bus coach delivery truck trailer motorcycle evehicle custom1 custom2" speed="27.78" length="0.26" shape="8034.26,7444.19 8034.39,7444.19"/>
        <lane id=":1103406367_0_1" index="1" allow="private emergency authority army vip passenger hov taxi bus coach delivery truck trailer motorcycle evehicle custom1 custom2" speed="27.78" length="0.26" shape="8034.15,7447.38 8034.53,7447.38"/>
    </edge>
    <edge id=":1103406370_0" function="internal">
        <lane id=":1103406370_0_0" index="0" disallow="tram rail_urban rail rail_electric rail_fast ship" speed="13.89" length="10.95" shape="7005.60,7087.70 7002.81,7086.35 7000.57,7085.69 6998.21,7085.34 6995.11,7084.90"/>
    </edge>
    <edge id=":1103406370_1" function="internal">
        <lane id=":1103406370_1_0" index="0" disallow="tram rail_urban rail rail_electric rail_fast ship" speed="7.06" length="7.40" shape="7005.60,7087.70 7002.76,7085.74 7001.10,7083.67 7000.81,7082.41"/>
    </edge>
    <edge id=":1103406370_4" function="internal">
        <lane id=":1103406370_4_0" index="0" disallow="tram rail_urban rail rail_electric rail_fast ship" speed="7.06" length="3.33" shape="7000.81,7082.41 7000.60,7081.49 7001.29,7079.21"/>
    </edge>
    <edge id=":1103406370_2" function="internal">
        <lane id=":1103406370_2_0" index="0" disallow="tram rail_urban rail rail_electric rail_fast ship" speed="6.48" length="6.66" shape="6995.63,7081.74 6997.46,7081.83 6999.01,7081.43 7000.28,7080.56 7001.29,7079.21"/>
    </edge>
    <edge id=":1103406370_3" function="internal">
        <lane id=":1103406370_3_0" index="0" disallow="tram rail_urban rail rail_electric rail_fast ship" speed="3.65" length="1.44" shape="6995.63,7081.74 6996.68,7082.73"/>
    </edge>
    <edge id=":1103406370_5" function="internal">
        <lane id=":1103406370_5_0" index="0" disallow="tram rail_urban rail rail_electric rail_fast ship" speed="3.65" length="3.23" shape="6996.68,7082.73 6996.95,7083.58 6996.42,7084.31 6995.11,7084.90"/>
    </edge>
    <edge id=":1103406372_0" function="internal">
        <lane id=":1103406372_0_0" index="0" allow="private emergency authority army vip passenger hov taxi bus coach delivery truck trailer motorcycle evehicle custom1 custom2" speed="22.22" length="0.13" shape="7020.62,7061.53 7020.63,7061.52"/>
        <lane id=":1103406372_0_1" index="1" allow="private emergency authority army vip passenger hov taxi bus coach delivery truck trailer motorcycle evehicle custom1 custom2" speed="22.22" length="0.13" shape="7018.88,7064.21 7019.10,7064.34"/>
    </edge>
    <edge id=":1103406385_0" function="internal">
        <lane id=":1103406385_0_0" index="0" allow="private emergency authority army vip passenger hov taxi bus coach delivery truck trailer motorcycle evehicle custom1 custom2" speed="8.43" length="6.32" shape="7190.49,7179.86 7188.79,7179.04 7187.53,7178.54 7186.26,7178.47 7184.52,7178.95"/>
    </edge>
    <edge id=":1103406385_1" function="internal">
        <lane id=":1103406385_1_0" index="0" disallow="tram rail_urban rail rail_electric rail_fast ship" speed="27.78" length="6.29" shape="7190.15,7175.48 7188.54,7176.62 7187.46,7177.46 7186.31,7178.17 7184.52,7178.95"/>
        <lane id=":1103406385_1_1" index="1" disallow="tram rail_urban rail rail_electric rail_fast ship" speed="27.78" length="6.29" shape="7188.39,7172.81 7186.96,7173.84 7186.00,7174.60 7185.00,7175.25 7183.40,7175.95"/>
    </edge>
    <edge id=":1103406407_0" function="internal">
        <lane id=":1103406407_0_0" index="0" allow="private emergency authority army vip passenger hov taxi bus coach delivery truck trailer motorcycle evehicle custom1 custom2" speed="25.00" length="20.09" shape="7155.80,7123.58 7159.47,7124.56 7163.76,7124.99 7169.05,7125.14 7175.73,7125.33"/>
    </edge>
    <edge id=":1103406407_1" function="internal">
        <lane id=":1103406407_1_0" index="0" disallow="tram rail_urban rail rail_electric rail_fast ship" speed="27.78" length="16.95" shape="7158.74,7128.63 7163.69,7127.06 7167.11,7125.96 7170.60,7125.37 7175.73,7125.33"/>
        <lane id=":1103406407_1_1" index="1" disallow="tram rail_urban rail rail_electric rail_fast ship" speed="27.78" length="16.95" shape="7159.62,7131.71 7164.28,7130.22 7167.50,7129.16 7170.77,7128.57 7175.61,7128.52"/>
    </edge>
    <edge id=":1103406413_0" function="internal">
        <lane id=":1103406413_0_0" index="0" allow="private emergency authority army vip passenger hov taxi bus coach delivery truck trailer motorcycle evehicle custom1 custom2" speed="39.44" length="0.28" shape="7979.62,7458.76 7979.31,7458.75"/>
        <lane id=":1103406413_0_1" index="1" allow="private emergency authority army vip passenger hov taxi bus coach delivery truck trailer motorcycle evehicle custom1 custom2" speed="39.44" length="0.28" shape="7979.73,7455.57 7979.49,7455.55"/>
    </edge>
    <edge id=":1103406432_0" function="internal">
        <lane id=":1103406432_0_0" index="0" disallow="tram rail_urban rail rail_electric rail_fast ship" speed="7.64" length="8.04" shape="7178.37,7256.47 7176.83,7257.48 7175.68,7258.92 7174.93,7260.79 7174.57,7263.10"/>
        <lane id=":1103406432_0_1" index="1" disallow="tram rail_urban rail rail_electric rail_fast ship" speed="9.38" length="12.43" shape="7177.05,7253.56 7174.74,7255.09 7173.01,7257.33 7171.86,7260.26 7171.31,7263.90"/>
    </edge>
    <edge id=":1103406432_2" function="internal">
        <lane id=":1103406432_2_0" index="0" disallow="tram rail_urban rail rail_electric rail_fast ship" speed="11.42" length="11.47" shape="7170.13,7252.17 7172.21,7254.89 7173.64,7257.61 7174.43,7260.35 7174.57,7263.10"/>
        <lane id=":1103406432_2_1" index="1" disallow="tram rail_urban rail rail_electric rail_fast ship" speed="10.84" length="11.47" shape="7167.51,7254.04 7169.30,7256.41 7170.53,7258.84 7171.20,7261.34 7171.31,7263.90"/>
    </edge>
    <edge id=":1103406440_0" function="internal">
        <lane id=":1103406440_0_0" index="0" allow="private emergency authority army vip passenger hov taxi bus coach delivery truck trailer motorcycle evehicle custom1 custom2" speed="22.22" length="0.19" shape="7012.62,7077.51 7012.76,7077.63"/>
    </edge>
    <edge id=":1103406446_0" function="internal">
        <lane id=":1103406446_0_0" index="0" allow="private emergency authority army vip passenger hov taxi bus coach delivery truck trailer motorcycle evehicle custom1 custom2" speed="22.22" length="0.10" shape="7022.63,7057.82 7022.63,7057.82"/>
    </edge>
    <edge id=":1103406460_0" function="internal">
        <lane id=":1103406460_0_0" index="0" allow="private emergency authority army vip passenger hov taxi bus coach delivery truck trailer motorcycle evehicle custom1 custom2" speed="30.83" length="0.39" shape="6610.84,6895.52 6610.79,6895.51 6610.75,6895.50 6610.71,6895.49 6610.65,6895.49"/>
        <lane id=":1103406460_0_1" index="1" allow="private emergency authority army vip passenger hov taxi bus coach delivery truck trailer motorcycle evehicle custom1 custom2" speed="30.83" length="0.39" shape="6611.60,6892.41 6611.43,6892.37 6611.31,6892.35 6611.19,6892.33 6611.02,6892.31"/>
    </edge>
    <edge id=":1103406484_0" function="internal">
        <lane id=":1103406484_0_0" index="0" allow="private emergency authority army vip passenger hov taxi bus coach delivery truck trailer motorcycle evehicle custom1 custom2" speed="18.05" length="0.10" shape="7298.37,7207.46 7298.37,7207.46"/>
    </edge>
    <edge id=":1103406489_0" function="internal">
        <lane id=":1103406489_0_0" index="0" disallow="tram rail_urban rail rail_electric rail_fast ship" speed="20.84" length="15.25" shape="7157.15,7222.36 7157.03,7218.60 7156.40,7214.83 7155.55,7211.07 7154.75,7207.35"/>
    </edge>
    <edge id=":1103406489_1" function="internal">
        <lane id=":1103406489_1_0" index="0" disallow="pedestrian tram rail_urban rail rail_electric rail_fast ship" speed="27.78" length="15.25" shape="7157.15,7222.36 7158.31,7207.16"/>
    </edge>
    <edge id=":1103406498_0" function="internal">
        <lane id=":1103406498_0_0" index="0" allow="private emergency authority army vip passenger hov taxi bus coach delivery truck trailer motorcycle evehicle custom1 custom2" speed="30.83" length="8.17" shape="8037.67,7459.31 8035.28,7459.36 8033.66,7459.80 8032.04,7460.28 8029.64,7460.45"/>
    </edge>
    <edge id=":1103406498_1" function="internal">
        <lane id=":1103406498_1_0" index="0" allow="private emergency authority army vip passenger hov taxi bus coach delivery truck trailer motorcycle evehicle custom1 custom2" speed="39.44" length="7.99" shape="8037.62,7460.73 8029.64,7460.45"/>
        <lane id=":1103406498_1_1" index="1" allow="private emergency authority army vip passenger hov taxi bus coach delivery truck trailer motorcycle evehicle custom1 custom2" speed="39.44" length="7.99" shape="8037.74,7457.53 8029.75,7457.25"/>
    </edge>
    <edge id=":1103406500_0" function="internal">
        <lane id=":1103406500_0_0" index="0" allow="private emergency authority army vip passenger hov taxi bus coach delivery truck trailer motorcycle evehicle custom1 custom2" speed="30.83" length="0.10" shape="7014.78,7074.10 7014.87,7074.15"/>
        <lane id=":1103406500_0_1" index="1" allow="private emergency authority army vip passenger hov taxi bus coach delivery truck trailer motorcycle evehicle custom1 custom2" speed="30.83" length="0.10" shape="7016.27,7071.27 7016.32,7071.29"/>
    </edge>
    <edge id=":1105984386_0" function="internal">
        <lane id=":1105984386_0_0" index="0" allow="private emergency authority army vip passenger hov taxi bus coach delivery truck trailer motorcycle evehicle custom1 custom2" speed="22.22" length="9.71" shape="5906.16,12613.09 5908.23,12611.34 5909.00,12609.51 5909.60,12607.45 5911.12,12605.03"/>
    </edge>
    <edge id=":1105984390_0" function="internal">
        <lane id=":1105984390_0_0" index="0" allow="private emergency authority army vip passenger hov taxi bus coach delivery truck trailer motorcycle evehicle custom1 custom2" speed="19.03" length="7.68" shape="5885.48,12521.55 5883.24,12521.35 5881.70,12521.54 5880.17,12521.99 5877.96,12522.60"/>
    </edge>
    <edge id=":1105984390_1" function="internal">
        <lane id=":1105984390_1_0" index="0" allow="private emergency authority army vip passenger hov taxi bus coach delivery truck trailer motorcycle evehicle custom1 custom2" speed="22.22" length="8.25" shape="5885.96,12518.39 5883.55,12518.29 5881.89,12518.63 5880.22,12518.98 5877.81,12518.90"/>
        <lane id=":1105984390_1_1" index="1" allow="private emergency authority army vip passenger hov taxi bus coach delivery truck trailer motorcycle evehicle custom1 custom2" speed="22.22" length="8.25" shape="5886.45,12515.22 5884.03,12515.12 5882.36,12515.47 5880.69,12515.81 5878.27,12515.73"/>
        <lane id=":1105984390_1_2" index="2" allow="private emergency authority army vip passenger hov taxi bus coach delivery truck trailer motorcycle evehicle custom1 custom2" speed="22.22" length="8.25" shape="5886.94,12512.06 5884.51,12511.96 5882.84,12512.30 5881.16,12512.65 5878.73,12512.57"/>
    </edge>
    <edge id=":1105984395_0" function="internal">
        <lane id=":1105984395_0_0" index="0" allow="private emergency authority army vip passenger hov taxi bus coach delivery truck trailer motorcycle evehicle custom1 custom2" speed="22.22" length="0.92" shape="5854.64,12613.72 5854.76,12613.80 5854.84,12613.84 5854.92,12613.88 5855.05,12613.92"/>
        <lane id=":1105984395_0_1" index="1" allow="private emergency authority army vip passenger hov taxi bus coach delivery truck trailer motorcycle evehicle custom1 custom2" speed="17.74" length="0.92" shape="5852.84,12616.36 5853.17,12616.59 5853.42,12616.73 5853.68,12616.84 5854.06,12616.96"/>
    </edge>
    <edge id=":1105984398_0" function="internal">
        <lane id=":1105984398_0_0" index="0" allow="private emergency authority army vip passenger hov taxi bus coach delivery truck trailer motorcycle evehicle custom1 custom2" speed="20.83" length="7.14" shape="5922.56,12587.89 5923.59,12586.04 5924.33,12584.76 5924.85,12583.41 5925.25,12581.36"/>
    </edge>
    <edge id=":1105984398_1" function="internal">
        <lane id=":1105984398_1_0" index="0" disallow="pedestrian bicycle tram rail_urban rail rail_electric rail_fast ship" speed="19.44" length="7.56" shape="5926.08,12588.96 5926.56,12586.79 5927.22,12585.37 5927.90,12583.96 5928.42,12581.79"/>
        <lane id=":1105984398_1_1" index="1" disallow="pedestrian bicycle tram rail_urban rail rail_electric rail_fast ship" speed="19.44" length="7.56" shape="5929.26,12589.34 5929.74,12587.18 5930.40,12585.78 5931.07,12584.38 5931.59,12582.22"/>
    </edge>
    <edge id=":1106058830_0" function="internal">
        <lane id=":1106058830_0_0" index="0" allow="private emergency authority army vip passenger hov taxi bus coach delivery truck trailer motorcycle evehicle custom1 custom2" speed="39.44" length="0.29" shape="8556.54,7745.02 8556.36,7744.76"/>
        <lane id=":1106058830_0_1" index="1" allow="private emergency authority army vip passenger hov taxi bus coach delivery truck trailer motorcycle evehicle custom1 custom2" speed="39.44" length="0.29" shape="8559.13,7743.14 8558.98,7742.92"/>
    </edge>
    <edge id=":1106058833_0" function="internal">
        <lane id=":1106058833_0_0" index="0" allow="private emergency authority army vip passenger hov taxi bus coach delivery truck trailer motorcycle evehicle custom1 custom2" speed="39.44" length="0.30" shape="8798.45,7960.65 8798.20,7960.48"/>
        <lane id=":1106058833_0_1" index="1" allow="private emergency authority army vip passenger hov taxi bus coach delivery truck trailer motorcycle evehicle custom1 custom2" speed="39.44" length="0.30" shape="8800.24,7958.00 8799.99,7957.83"/>
    </edge>
    <edge id=":1106058838_0" function="internal">
        <lane id=":1106058838_0_0" index="0" allow="private emergency authority army vip passenger hov taxi bus coach delivery truck trailer motorcycle evehicle custom1 custom2" speed="39.44" length="0.29" shape="8532.34,7710.61 8532.19,7710.39"/>
        <lane id=":1106058838_0_1" index="1" allow="private emergency authority army vip passenger hov taxi bus coach delivery truck trailer motorcycle evehicle custom1 custom2" speed="39.44" length="0.29" shape="8534.96,7708.77 8534.78,7708.51"/>
    </edge>
    <edge id=":1110338293_0" function="internal">
        <lane id=":1110338293_0_0" index="0" allow="private emergency authority army vip passenger hov taxi bus coach delivery truck trailer motorcycle evehicle custom1 custom2" speed="22.22" length="0.27" shape="4351.27,11720.80 4351.42,11720.93"/>
        <lane id=":1110338293_0_1" index="1" allow="private emergency authority army vip passenger hov taxi bus coach delivery truck trailer motorcycle evehicle custom1 custom2" speed="22.22" length="0.27" shape="4349.07,11723.12 4349.33,11723.35"/>
    </edge>
    <edge id=":1110673403_0" function="internal">
        <lane id=":1110673403_0_0" index="0" disallow="pedestrian bicycle tram rail_urban rail rail_electric rail_fast ship" speed="19.44" length="0.30" shape="5937.14,12496.82 5937.18,12496.53"/>
        <lane id=":1110673403_0_1" index="1" disallow="pedestrian bicycle tram rail_urban rail rail_electric rail_fast ship" speed="19.44" length="0.30" shape="5940.31,12497.28 5940.35,12496.98"/>
        <lane id=":1110673403_0_2" index="2" disallow="pedestrian bicycle tram rail_urban rail rail_electric rail_fast ship" speed="19.44" length="0.30" shape="5943.47,12497.74 5943.52,12497.43"/>
    </edge>
    <edge id=":1110673412_0" function="internal">
        <lane id=":1110673412_0_0" index="0" allow="private emergency authority army vip passenger hov taxi bus coach delivery truck trailer motorcycle evehicle custom1 custom2" speed="22.22" length="0.29" shape="6186.14,12539.42 6186.49,12539.46"/>
        <lane id=":1110673412_0_1" index="1" allow="private emergency authority army vip passenger hov taxi bus coach delivery truck trailer motorcycle evehicle custom1 custom2" speed="22.22" length="0.29" shape="6185.76,12542.59 6186.07,12542.63"/>
        <lane id=":1110673412_0_2" index="2" allow="private emergency authority army vip passenger hov taxi bus coach delivery truck trailer motorcycle evehicle custom1 custom2" speed="22.22" length="0.29" shape="6185.39,12545.77 6185.65,12545.81"/>
        <lane id=":1110673412_0_3" index="3" allow="private emergency authority army vip passenger hov taxi bus coach delivery truck trailer motorcycle evehicle custom1 custom2" speed="22.22" length="0.29" shape="6185.01,12548.95 6185.23,12548.98"/>
    </edge>
    <edge id=":1110673417_0" function="internal">