<configuration>
    <input>
        <net-file value="porto_clean_laterals.net.xml"/>
        <route-files value="porto.rou.xml"/>
        <additional-files value="porto.add.xml"/>
    </input>
    <time> 
        <begin value="0"/> 
        <end value="1e6"/> 
    </time>
</configuration>